  Version,23.1;

  Timestep,1;

ConvergenceLimits,
  0,                       !- Minimum System Timestep {minutes}
  25;                      !- Maximum HVAC Iterations

  LifeCycleCost:Parameters,
    Life Cycle Cost Parameters,  !- Name
    EndOfYear,               !- Discounting Convention
    ConstantDollar,          !- Inflation Approach
    0.03,                    !- Real Discount Rate
    ,                        !- Nominal Discount Rate
    ,                        !- Inflation
    ,                        !- Base Date Month
    2011,                    !- Base Date Year
    ,                        !- Service Date Month
    2011,                    !- Service Date Year
    25,                      !- Length of Study Period in Years
    ,                        !- Tax rate
    None;                    !- Depreciation Method

  LifeCycleCost:UsePriceEscalation,
    U.S. Avg  Commercial-Electricity,  !- LCC Price Escalation Name
    Electricity,             !- Resource
    2011,                    !- Escalation Start Year
    January,                 !- Escalation Start Month
    0.9838,                  !- Year 1 Escalation
    0.9730,                  !- Year 2 Escalation
    0.9632,                  !- Year 3 Escalation
    0.9611,                  !- Year 4 Escalation
    0.9571,                  !- Year 5 Escalation
    0.9553,                  !- Year 6 Escalation
    0.9539,                  !- Year 7 Escalation
    0.9521,                  !- Year 8 Escalation
    0.9546,                  !- Year 9 Escalation
    0.9550,                  !- <none>
    0.9553,                  !- <none>
    0.9564,                  !- <none>
    0.9575,                  !- <none>
    0.9596,                  !- <none>
    0.9618,                  !- <none>
    0.9614,                  !- <none>
    0.9618,                  !- <none>
    0.9618,                  !- <none>
    0.9593,                  !- <none>
    0.9589,                  !- <none>
    0.9607,                  !- <none>
    0.9625,                  !- <none>
    0.9650,                  !- <none>
    0.9708,                  !- <none>
    0.9751,                  !- <none>
    0.9762,                  !- <none>
    0.9766,                  !- <none>
    0.9766,                  !- <none>
    0.9769,                  !- <none>
    0.9773;                  !- <none>

  LifeCycleCost:UsePriceEscalation,
    U.S. Avg  Commercial-Distillate Oil,  !- LCC Price Escalation Name
    FuelOilNo1,              !- Resource
    2011,                    !- Escalation Start Year
    January,                 !- Escalation Start Month
    0.9714,                  !- Year 1 Escalation
    0.9730,                  !- Year 2 Escalation
    0.9942,                  !- Year 3 Escalation
    1.0164,                  !- Year 4 Escalation
    1.0541,                  !- Year 5 Escalation
    1.0928,                  !- Year 6 Escalation
    1.1267,                  !- Year 7 Escalation
    1.1580,                  !- Year 8 Escalation
    1.1792,                  !- Year 9 Escalation
    1.1967,                  !- <none>
    1.2200,                  !- <none>
    1.2333,                  !- <none>
    1.2566,                  !- <none>
    1.2709,                  !- <none>
    1.2826,                  !- <none>
    1.2985,                  !- <none>
    1.3102,                  !- <none>
    1.3250,                  !- <none>
    1.3261,                  !- <none>
    1.3282,                  !- <none>
    1.3324,                  !- <none>
    1.3356,                  !- <none>
    1.3431,                  !- <none>
    1.3510,                  !- <none>
    1.3568,                  !- <none>
    1.3606,                  !- <none>
    1.3637,                  !- <none>
    1.3674,                  !- <none>
    1.3706,                  !- <none>
    1.3743;                  !- <none>

  LifeCycleCost:UsePriceEscalation,
    U.S. Avg  Commercial-Residual Oil,  !- LCC Price Escalation Name
    FuelOilNo2,              !- Resource
    2011,                    !- Escalation Start Year
    January,                 !- Escalation Start Month
    0.8469,                  !- Year 1 Escalation
    0.8257,                  !- Year 2 Escalation
    0.8681,                  !- Year 3 Escalation
    0.8988,                  !- Year 4 Escalation
    0.9289,                  !- Year 5 Escalation
    0.9604,                  !- Year 6 Escalation
    0.9897,                  !- Year 7 Escalation
    1.0075,                  !- Year 8 Escalation
    1.0314,                  !- Year 9 Escalation
    1.0554,                  !- <none>
    1.0861,                  !- <none>
    1.1278,                  !- <none>
    1.1497,                  !- <none>
    1.1620,                  !- <none>
    1.1743,                  !- <none>
    1.1852,                  !- <none>
    1.1948,                  !- <none>
    1.2037,                  !- <none>
    1.2071,                  !- <none>
    1.2119,                  !- <none>
    1.2139,                  !- <none>
    1.2194,                  !- <none>
    1.2276,                  !- <none>
    1.2365,                  !- <none>
    1.2420,                  !- <none>
    1.2461,                  !- <none>
    1.2509,                  !- <none>
    1.2550,                  !- <none>
    1.2591,                  !- <none>
    1.2638;                  !- <none>

  LifeCycleCost:UsePriceEscalation,
    U.S. Avg  Commercial-Natural gas,  !- LCC Price Escalation Name
    NaturalGas,              !- Resource
    2011,                    !- Escalation Start Year
    January,                 !- Escalation Start Month
    0.9823,                  !- Year 1 Escalation
    0.9557,                  !- Year 2 Escalation
    0.9279,                  !- Year 3 Escalation
    0.9257,                  !- Year 4 Escalation
    0.9346,                  !- Year 5 Escalation
    0.9412,                  !- Year 6 Escalation
    0.9512,                  !- Year 7 Escalation
    0.9645,                  !- Year 8 Escalation
    0.9856,                  !- Year 9 Escalation
    1.0067,                  !- <none>
    1.0222,                  !- <none>
    1.0410,                  !- <none>
    1.0610,                  !- <none>
    1.0787,                  !- <none>
    1.0942,                  !- <none>
    1.1098,                  !- <none>
    1.1220,                  !- <none>
    1.1308,                  !- <none>
    1.1386,                  !- <none>
    1.1486,                  !- <none>
    1.1619,                  !- <none>
    1.1763,                  !- <none>
    1.1918,                  !- <none>
    1.2118,                  !- <none>
    1.2284,                  !- <none>
    1.2439,                  !- <none>
    1.2605,                  !- <none>
    1.2772,                  !- <none>
    1.2938,                  !- <none>
    1.3115;                  !- <none>

  LifeCycleCost:UsePriceEscalation,
    U.S. Avg  Commercial-Coal,  !- LCC Price Escalation Name
    Coal,                    !- Resource
    2011,                    !- Escalation Start Year
    January,                 !- Escalation Start Month
    0.9970,                  !- Year 1 Escalation
    1.0089,                  !- Year 2 Escalation
    1.0089,                  !- Year 3 Escalation
    0.9941,                  !- Year 4 Escalation
    0.9941,                  !- Year 5 Escalation
    1.0000,                  !- Year 6 Escalation
    1.0030,                  !- Year 7 Escalation
    1.0059,                  !- Year 8 Escalation
    1.0089,                  !- Year 9 Escalation
    1.0119,                  !- <none>
    1.0148,                  !- <none>
    1.0178,                  !- <none>
    1.0208,                  !- <none>
    1.0267,                  !- <none>
    1.0297,                  !- <none>
    1.0356,                  !- <none>
    1.0415,                  !- <none>
    1.0534,                  !- <none>
    1.0564,                  !- <none>
    1.0593,                  !- <none>
    1.0653,                  !- <none>
    1.0712,                  !- <none>
    1.0742,                  !- <none>
    1.0801,                  !- <none>
    1.0831,                  !- <none>
    1.0831,                  !- <none>
    1.0861,                  !- <none>
    1.0890,                  !- <none>
    1.0920,                  !- <none>
    1.0950;                  !- <none>

  Building,
    Restaurant 1,            !- Name
    ,                        !- North Axis {deg}
    City,                    !- Terrain
    ,                        !- Loads Convergence Tolerance Value {W}
    ,                        !- Temperature Convergence Tolerance Value {deltaC}
    ,                        !- Solar Distribution
    ,                        !- Maximum Number of Warmup Days
    ;                        !- Minimum Number of Warmup Days

  Shading:Building:Detailed,
    Shading Surface 10,      !- Name
    ,                        !- Transmittance Schedule Name
    ,                        !- Number of Vertices
    58.3262888356672,-241.660156998933,30,  !- X,Y,Z ==> Vertex 1 {m}
    58.3262888356672,-241.660156998933,0,  !- X,Y,Z ==> Vertex 2 {m}
    17.8609588061351,-255.48844722736,0,  !- X,Y,Z ==> Vertex 3 {m}
    17.8609588061351,-255.48844722736,30;  !- X,Y,Z ==> Vertex 4 {m}

  Shading:Building:Detailed,
    Shading Surface 11,      !- Name
    ,                        !- Transmittance Schedule Name
    ,                        !- Number of Vertices
    17.8609588061351,-255.48844722736,30,  !- X,Y,Z ==> Vertex 1 {m}
    17.8609588061351,-255.48844722736,0,  !- X,Y,Z ==> Vertex 2 {m}
    9.9835753875232,-231.609868696219,0,  !- X,Y,Z ==> Vertex 3 {m}
    9.9835753875232,-231.609868696219,30;  !- X,Y,Z ==> Vertex 4 {m}

  Shading:Building:Detailed,
    Shading Surface 12,      !- Name
    ,                        !- Transmittance Schedule Name
    ,                        !- Number of Vertices
    11.0494577111259,-308.335904097791,30,  !- X,Y,Z ==> Vertex 1 {m}
    11.0494577111259,-308.335904097791,0,  !- X,Y,Z ==> Vertex 2 {m}
    72.8754718756047,-287.511574452769,0,  !- X,Y,Z ==> Vertex 3 {m}
    72.8754718756047,-287.511574452769,30;  !- X,Y,Z ==> Vertex 4 {m}

  Shading:Building:Detailed,
    Shading Surface 13,      !- Name
    ,                        !- Transmittance Schedule Name
    ,                        !- Number of Vertices
    72.8754718756047,-287.511574452769,30,  !- X,Y,Z ==> Vertex 1 {m}
    58.3262888356672,-241.660156998933,30,  !- X,Y,Z ==> Vertex 2 {m}
    17.8609588061351,-255.48844722736,30,  !- X,Y,Z ==> Vertex 3 {m}
    9.9835753875232,-231.609868696219,30,  !- X,Y,Z ==> Vertex 4 {m}
    -12.4186401150996,-238.946844987958,30,  !- X,Y,Z ==> Vertex 5 {m}
    11.0494577111259,-308.335904097791,30;  !- X,Y,Z ==> Vertex 6 {m}

  Shading:Building:Detailed,
    Shading Surface 14,      !- Name
    ,                        !- Transmittance Schedule Name
    ,                        !- Number of Vertices
    9.9835753875232,-231.609868696219,30,  !- X,Y,Z ==> Vertex 1 {m}
    9.9835753875232,-231.609868696219,0,  !- X,Y,Z ==> Vertex 2 {m}
    -12.4186401150996,-238.946844987958,0,  !- X,Y,Z ==> Vertex 3 {m}
    -12.4186401150996,-238.946844987958,30;  !- X,Y,Z ==> Vertex 4 {m}

  Shading:Building:Detailed,
    Shading Surface 7,       !- Name
    ,                        !- Transmittance Schedule Name
    ,                        !- Number of Vertices
    -12.4186401150996,-238.946844987958,30,  !- X,Y,Z ==> Vertex 1 {m}
    -12.4186401150996,-238.946844987958,0,  !- X,Y,Z ==> Vertex 2 {m}
    11.0494577111259,-308.335904097791,0,  !- X,Y,Z ==> Vertex 3 {m}
    11.0494577111259,-308.335904097791,30;  !- X,Y,Z ==> Vertex 4 {m}

  Shading:Building:Detailed,
    Shading Surface 8,       !- Name
    ,                        !- Transmittance Schedule Name
    ,                        !- Number of Vertices
    72.8754718756047,-287.511574452769,30,  !- X,Y,Z ==> Vertex 1 {m}
    72.8754718756047,-287.511574452769,0,  !- X,Y,Z ==> Vertex 2 {m}
    58.3262888356672,-241.660156998933,0,  !- X,Y,Z ==> Vertex 3 {m}
    58.3262888356672,-241.660156998933,30;  !- X,Y,Z ==> Vertex 4 {m}

  Shading:Building:Detailed,
    Shading Surface 9,       !- Name
    ,                        !- Transmittance Schedule Name
    ,                        !- Number of Vertices
    11.0494577111259,-308.335904097791,0,  !- X,Y,Z ==> Vertex 1 {m}
    -12.4186401150996,-238.946844987958,0,  !- X,Y,Z ==> Vertex 2 {m}
    9.9835753875232,-231.609868696219,0,  !- X,Y,Z ==> Vertex 3 {m}
    17.8609588061351,-255.48844722736,0,  !- X,Y,Z ==> Vertex 4 {m}
    58.3262888356672,-241.660156998933,0,  !- X,Y,Z ==> Vertex 5 {m}
    72.8754718756047,-287.511574452769,0;  !- X,Y,Z ==> Vertex 6 {m}

  Shading:Building:Detailed,
    Shading Surface 15,      !- Name
    ,                        !- Transmittance Schedule Name
    ,                        !- Number of Vertices
    -7.80878338083915,-126.799866578439,0,  !- X,Y,Z ==> Vertex 1 {m}
    85.9189017359926,-95.9443373940852,0,  !- X,Y,Z ==> Vertex 2 {m}
    100.542764304137,-140.044639589295,0,  !- X,Y,Z ==> Vertex 3 {m}
    -7.76547552960197,-175.700271708645,0,  !- X,Y,Z ==> Vertex 4 {m}
    5.75261995995533,-217.304934679039,0,  !- X,Y,Z ==> Vertex 5 {m}
    -16.8105180874839,-225.008665818777,0,  !- X,Y,Z ==> Vertex 6 {m}
    -56.4823480447969,-105.417744768492,0,  !- X,Y,Z ==> Vertex 7 {m}
    -18.4704930526158,-92.9045574519672,0;  !- X,Y,Z ==> Vertex 8 {m}

  Shading:Building:Detailed,
    Shading Surface 16,      !- Name
    ,                        !- Transmittance Schedule Name
    ,                        !- Number of Vertices
    85.9189017359926,-95.9443373940852,9,  !- X,Y,Z ==> Vertex 1 {m}
    85.9189017359926,-95.9443373940852,0,  !- X,Y,Z ==> Vertex 2 {m}
    -7.80878338083915,-126.799866578439,0,  !- X,Y,Z ==> Vertex 3 {m}
    -7.80878338083915,-126.799866578439,9;  !- X,Y,Z ==> Vertex 4 {m}

  Shading:Building:Detailed,
    Shading Surface 17,      !- Name
    ,                        !- Transmittance Schedule Name
    ,                        !- Number of Vertices
    100.542764304137,-140.044639589295,9,  !- X,Y,Z ==> Vertex 1 {m}
    100.542764304137,-140.044639589295,0,  !- X,Y,Z ==> Vertex 2 {m}
    85.9189017359926,-95.9443373940852,0,  !- X,Y,Z ==> Vertex 3 {m}
    85.9189017359926,-95.9443373940852,9;  !- X,Y,Z ==> Vertex 4 {m}

  Shading:Building:Detailed,
    Shading Surface 18,      !- Name
    ,                        !- Transmittance Schedule Name
    ,                        !- Number of Vertices
    -16.8105180874839,-225.008665818777,9,  !- X,Y,Z ==> Vertex 1 {m}
    -16.8105180874839,-225.008665818777,0,  !- X,Y,Z ==> Vertex 2 {m}
    5.75261995995533,-217.304934679039,0,  !- X,Y,Z ==> Vertex 3 {m}
    5.75261995995533,-217.304934679039,9;  !- X,Y,Z ==> Vertex 4 {m}

  Shading:Building:Detailed,
    Shading Surface 19,      !- Name
    ,                        !- Transmittance Schedule Name
    ,                        !- Number of Vertices
    -7.76547552960197,-175.700271708645,9,  !- X,Y,Z ==> Vertex 1 {m}
    -7.76547552960197,-175.700271708645,0,  !- X,Y,Z ==> Vertex 2 {m}
    100.542764304137,-140.044639589295,0,  !- X,Y,Z ==> Vertex 3 {m}
    100.542764304137,-140.044639589295,9;  !- X,Y,Z ==> Vertex 4 {m}

  Shading:Building:Detailed,
    Shading Surface 20,      !- Name
    ,                        !- Transmittance Schedule Name
    ,                        !- Number of Vertices
    -56.4823480447969,-105.417744768492,9,  !- X,Y,Z ==> Vertex 1 {m}
    -56.4823480447969,-105.417744768492,0,  !- X,Y,Z ==> Vertex 2 {m}
    -16.8105180874839,-225.008665818777,0,  !- X,Y,Z ==> Vertex 3 {m}
    -16.8105180874839,-225.008665818777,9;  !- X,Y,Z ==> Vertex 4 {m}

  Shading:Building:Detailed,
    Shading Surface 21,      !- Name
    ,                        !- Transmittance Schedule Name
    ,                        !- Number of Vertices
    -18.4704930526158,-92.9045574519672,9,  !- X,Y,Z ==> Vertex 1 {m}
    -56.4823480447969,-105.417744768492,9,  !- X,Y,Z ==> Vertex 2 {m}
    -16.8105180874839,-225.008665818777,9,  !- X,Y,Z ==> Vertex 3 {m}
    5.75261995995533,-217.304934679039,9,  !- X,Y,Z ==> Vertex 4 {m}
    -7.76547552960197,-175.700271708645,9,  !- X,Y,Z ==> Vertex 5 {m}
    100.542764304137,-140.044639589295,9,  !- X,Y,Z ==> Vertex 6 {m}
    85.9189017359926,-95.9443373940852,9,  !- X,Y,Z ==> Vertex 7 {m}
    -7.80878338083915,-126.799866578439,9;  !- X,Y,Z ==> Vertex 8 {m}

  Shading:Building:Detailed,
    Shading Surface 22,      !- Name
    ,                        !- Transmittance Schedule Name
    ,                        !- Number of Vertices
    -7.80878338083915,-126.799866578439,9,  !- X,Y,Z ==> Vertex 1 {m}
    -7.80878338083915,-126.799866578439,0,  !- X,Y,Z ==> Vertex 2 {m}
    -18.4704930526158,-92.9045574519672,0,  !- X,Y,Z ==> Vertex 3 {m}
    -18.4704930526158,-92.9045574519672,9;  !- X,Y,Z ==> Vertex 4 {m}

  Shading:Building:Detailed,
    Shading Surface 23,      !- Name
    ,                        !- Transmittance Schedule Name
    ,                        !- Number of Vertices
    5.75261995995533,-217.304934679039,9,  !- X,Y,Z ==> Vertex 1 {m}
    5.75261995995533,-217.304934679039,0,  !- X,Y,Z ==> Vertex 2 {m}
    -7.76547552960197,-175.700271708645,0,  !- X,Y,Z ==> Vertex 3 {m}
    -7.76547552960197,-175.700271708645,9;  !- X,Y,Z ==> Vertex 4 {m}

  Shading:Building:Detailed,
    Shading Surface 24,      !- Name
    ,                        !- Transmittance Schedule Name
    ,                        !- Number of Vertices
    -18.4704930526158,-92.9045574519672,9,  !- X,Y,Z ==> Vertex 1 {m}
    -18.4704930526158,-92.9045574519672,0,  !- X,Y,Z ==> Vertex 2 {m}
    -56.4823480447969,-105.417744768492,0,  !- X,Y,Z ==> Vertex 3 {m}
    -56.4823480447969,-105.417744768492,9;  !- X,Y,Z ==> Vertex 4 {m}

  Shading:Building:Detailed,
    Shading Surface 39,      !- Name
    ,                        !- Transmittance Schedule Name
    ,                        !- Number of Vertices
    140.645891280423,206.739900150958,30,  !- X,Y,Z ==> Vertex 1 {m}
    140.645891280423,206.739900150958,0,  !- X,Y,Z ==> Vertex 2 {m}
    121.996939826686,261.883444327484,0,  !- X,Y,Z ==> Vertex 3 {m}
    121.996939826686,261.883444327484,30;  !- X,Y,Z ==> Vertex 4 {m}

  Shading:Building:Detailed,
    Shading Surface 40,      !- Name
    ,                        !- Transmittance Schedule Name
    ,                        !- Number of Vertices
    121.996939826686,261.883444327484,30,  !- X,Y,Z ==> Vertex 1 {m}
    121.996939826686,261.883444327484,0,  !- X,Y,Z ==> Vertex 2 {m}
    74.1885351940477,245.832023072804,0,  !- X,Y,Z ==> Vertex 3 {m}
    74.1885351940477,245.832023072804,30;  !- X,Y,Z ==> Vertex 4 {m}

  Shading:Building:Detailed,
    Shading Surface 41,      !- Name
    ,                        !- Transmittance Schedule Name
    ,                        !- Number of Vertices
    121.996939826686,261.883444327484,30,  !- X,Y,Z ==> Vertex 1 {m}
    74.1885351940477,245.832023072804,30,  !- X,Y,Z ==> Vertex 2 {m}
    92.8371476334372,190.688222098753,30,  !- X,Y,Z ==> Vertex 3 {m}
    140.645891280423,206.739900150958,30;  !- X,Y,Z ==> Vertex 4 {m}

  Shading:Building:Detailed,
    Shading Surface 42,      !- Name
    ,                        !- Transmittance Schedule Name
    ,                        !- Number of Vertices
    140.645891280423,206.739900150958,0,  !- X,Y,Z ==> Vertex 1 {m}
    92.8371476334372,190.688222098753,0,  !- X,Y,Z ==> Vertex 2 {m}
    74.1885351940477,245.832023072804,0,  !- X,Y,Z ==> Vertex 3 {m}
    121.996939826686,261.883444327484,0;  !- X,Y,Z ==> Vertex 4 {m}

  Shading:Building:Detailed,
    Shading Surface 43,      !- Name
    ,                        !- Transmittance Schedule Name
    ,                        !- Number of Vertices
    92.8371476334372,190.688222098753,30,  !- X,Y,Z ==> Vertex 1 {m}
    92.8371476334372,190.688222098753,0,  !- X,Y,Z ==> Vertex 2 {m}
    140.645891280423,206.739900150958,0,  !- X,Y,Z ==> Vertex 3 {m}
    140.645891280423,206.739900150958,30;  !- X,Y,Z ==> Vertex 4 {m}

  Shading:Building:Detailed,
    Shading Surface 44,      !- Name
    ,                        !- Transmittance Schedule Name
    ,                        !- Number of Vertices
    74.1885351940477,245.832023072804,30,  !- X,Y,Z ==> Vertex 1 {m}
    74.1885351940477,245.832023072804,0,  !- X,Y,Z ==> Vertex 2 {m}
    92.8371476334372,190.688222098753,0,  !- X,Y,Z ==> Vertex 3 {m}
    92.8371476334372,190.688222098753,30;  !- X,Y,Z ==> Vertex 4 {m}

  Shading:Building:Detailed,
    Shading Surface 33,      !- Name
    ,                        !- Transmittance Schedule Name
    ,                        !- Number of Vertices
    193.633109092635,-112.239160713437,0,  !- X,Y,Z ==> Vertex 1 {m}
    120.85090054648,108.368952685071,0,  !- X,Y,Z ==> Vertex 2 {m}
    168.257495529307,123.896258776575,0,  !- X,Y,Z ==> Vertex 3 {m}
    241.041057186796,-96.7108608874247,0;  !- X,Y,Z ==> Vertex 4 {m}

  Shading:Building:Detailed,
    Shading Surface 34,      !- Name
    ,                        !- Transmittance Schedule Name
    ,                        !- Number of Vertices
    193.633109092635,-112.239160713437,9,  !- X,Y,Z ==> Vertex 1 {m}
    193.633109092635,-112.239160713437,0,  !- X,Y,Z ==> Vertex 2 {m}
    241.041057186796,-96.7108608874247,0,  !- X,Y,Z ==> Vertex 3 {m}
    241.041057186796,-96.7108608874247,9;  !- X,Y,Z ==> Vertex 4 {m}

  Shading:Building:Detailed,
    Shading Surface 35,      !- Name
    ,                        !- Transmittance Schedule Name
    ,                        !- Number of Vertices
    168.257495529307,123.896258776575,9,  !- X,Y,Z ==> Vertex 1 {m}
    168.257495529307,123.896258776575,0,  !- X,Y,Z ==> Vertex 2 {m}
    120.85090054648,108.368952685071,0,  !- X,Y,Z ==> Vertex 3 {m}
    120.85090054648,108.368952685071,9;  !- X,Y,Z ==> Vertex 4 {m}

  Shading:Building:Detailed,
    Shading Surface 36,      !- Name
    ,                        !- Transmittance Schedule Name
    ,                        !- Number of Vertices
    241.041057186796,-96.7108608874247,9,  !- X,Y,Z ==> Vertex 1 {m}
    168.257495529307,123.896258776575,9,  !- X,Y,Z ==> Vertex 2 {m}
    120.85090054648,108.368952685071,9,  !- X,Y,Z ==> Vertex 3 {m}
    193.633109092635,-112.239160713437,9;  !- X,Y,Z ==> Vertex 4 {m}

  Shading:Building:Detailed,
    Shading Surface 37,      !- Name
    ,                        !- Transmittance Schedule Name
    ,                        !- Number of Vertices
    120.85090054648,108.368952685071,9,  !- X,Y,Z ==> Vertex 1 {m}
    120.85090054648,108.368952685071,0,  !- X,Y,Z ==> Vertex 2 {m}
    193.633109092635,-112.239160713437,0,  !- X,Y,Z ==> Vertex 3 {m}
    193.633109092635,-112.239160713437,9;  !- X,Y,Z ==> Vertex 4 {m}

  Shading:Building:Detailed,
    Shading Surface 38,      !- Name
    ,                        !- Transmittance Schedule Name
    ,                        !- Number of Vertices
    241.041057186796,-96.7108608874247,9,  !- X,Y,Z ==> Vertex 1 {m}
    241.041057186796,-96.7108608874247,0,  !- X,Y,Z ==> Vertex 2 {m}
    168.257495529307,123.896258776575,0,  !- X,Y,Z ==> Vertex 3 {m}
    168.257495529307,123.896258776575,9;  !- X,Y,Z ==> Vertex 4 {m}

  Shading:Building:Detailed,
    Shading Surface 25,      !- Name
    ,                        !- Transmittance Schedule Name
    ,                        !- Number of Vertices
    -82.1176942510207,-31.9480922341981,24,  !- X,Y,Z ==> Vertex 1 {m}
    -82.1176942510207,-31.9480922341981,0,  !- X,Y,Z ==> Vertex 2 {m}
    -42.6830309493718,-19.0331833241758,0,  !- X,Y,Z ==> Vertex 3 {m}
    -42.6830309493718,-19.0331833241758,24;  !- X,Y,Z ==> Vertex 4 {m}

  Shading:Building:Detailed,
    Shading Surface 26,      !- Name
    ,                        !- Transmittance Schedule Name
    ,                        !- Number of Vertices
    -150.084157927512,172.300646683022,24,  !- X,Y,Z ==> Vertex 1 {m}
    -150.084157927512,172.300646683022,0,  !- X,Y,Z ==> Vertex 2 {m}
    -82.1176942510207,-31.9480922341981,0,  !- X,Y,Z ==> Vertex 3 {m}
    -82.1176942510207,-31.9480922341981,24;  !- X,Y,Z ==> Vertex 4 {m}

  Shading:Building:Detailed,
    Shading Surface 27,      !- Name
    ,                        !- Transmittance Schedule Name
    ,                        !- Number of Vertices
    -15.7972924815523,216.279355216733,24,  !- X,Y,Z ==> Vertex 1 {m}
    -15.7972924815523,216.279355216733,0,  !- X,Y,Z ==> Vertex 2 {m}
    -150.084157927512,172.300646683022,0,  !- X,Y,Z ==> Vertex 3 {m}
    -150.084157927512,172.300646683022,24;  !- X,Y,Z ==> Vertex 4 {m}

  Shading:Building:Detailed,
    Shading Surface 28,      !- Name
    ,                        !- Transmittance Schedule Name
    ,                        !- Number of Vertices
    2.06136611585881,160.354272735727,24,  !- X,Y,Z ==> Vertex 1 {m}
    2.06136611585881,160.354272735727,0,  !- X,Y,Z ==> Vertex 2 {m}
    -15.7972924815523,216.279355216733,0,  !- X,Y,Z ==> Vertex 3 {m}
    -15.7972924815523,216.279355216733,24;  !- X,Y,Z ==> Vertex 4 {m}

  Shading:Building:Detailed,
    Shading Surface 29,      !- Name
    ,                        !- Transmittance Schedule Name
    ,                        !- Number of Vertices
    -91.1776201177249,130.260537067988,24,  !- X,Y,Z ==> Vertex 1 {m}
    -91.1776201177249,130.260537067988,0,  !- X,Y,Z ==> Vertex 2 {m}
    2.06136611585881,160.354272735727,0,  !- X,Y,Z ==> Vertex 3 {m}
    2.06136611585881,160.354272735727,24;  !- X,Y,Z ==> Vertex 4 {m}

  Shading:Building:Detailed,
    Shading Surface 30,      !- Name
    ,                        !- Transmittance Schedule Name
    ,                        !- Number of Vertices
    -82.1176942510207,-31.9480922341981,0,  !- X,Y,Z ==> Vertex 1 {m}
    -150.084157927512,172.300646683022,0,  !- X,Y,Z ==> Vertex 2 {m}
    -15.7972924815523,216.279355216733,0,  !- X,Y,Z ==> Vertex 3 {m}
    2.06136611585881,160.354272735727,0,  !- X,Y,Z ==> Vertex 4 {m}
    -91.1776201177249,130.260537067988,0,  !- X,Y,Z ==> Vertex 5 {m}
    -42.6830309493718,-19.0331833241758,0;  !- X,Y,Z ==> Vertex 6 {m}

  Shading:Building:Detailed,
    Shading Surface 31,      !- Name
    ,                        !- Transmittance Schedule Name
    ,                        !- Number of Vertices
    -42.6830309493718,-19.0331833241758,24,  !- X,Y,Z ==> Vertex 1 {m}
    -42.6830309493718,-19.0331833241758,0,  !- X,Y,Z ==> Vertex 2 {m}
    -91.1776201177249,130.260537067988,0,  !- X,Y,Z ==> Vertex 3 {m}
    -91.1776201177249,130.260537067988,24;  !- X,Y,Z ==> Vertex 4 {m}

  Shading:Building:Detailed,
    Shading Surface 32,      !- Name
    ,                        !- Transmittance Schedule Name
    ,                        !- Number of Vertices
    -42.6830309493718,-19.0331833241758,24,  !- X,Y,Z ==> Vertex 1 {m}
    -91.1776201177249,130.260537067988,24,  !- X,Y,Z ==> Vertex 2 {m}
    2.06136611585881,160.354272735727,24,  !- X,Y,Z ==> Vertex 3 {m}
    -15.7972924815523,216.279355216733,24,  !- X,Y,Z ==> Vertex 4 {m}
    -150.084157927512,172.300646683022,24,  !- X,Y,Z ==> Vertex 5 {m}
    -82.1176942510207,-31.9480922341981,24;  !- X,Y,Z ==> Vertex 6 {m}

  Shading:Building:Detailed,
    Shading Surface 1,       !- Name
    ,                        !- Transmittance Schedule Name
    ,                        !- Number of Vertices
    186.004512325846,-252.331463217251,18,  !- X,Y,Z ==> Vertex 1 {m}
    186.004512325846,-252.331463217251,0,  !- X,Y,Z ==> Vertex 2 {m}
    284.468971371118,-220.079511644186,0,  !- X,Y,Z ==> Vertex 3 {m}
    284.468971371118,-220.079511644186,18;  !- X,Y,Z ==> Vertex 4 {m}

  Shading:Building:Detailed,
    Shading Surface 2,       !- Name
    ,                        !- Transmittance Schedule Name
    ,                        !- Number of Vertices
    170.762417502332,-206.132063564535,18,  !- X,Y,Z ==> Vertex 1 {m}
    170.762417502332,-206.132063564535,0,  !- X,Y,Z ==> Vertex 2 {m}
    186.004512325846,-252.331463217251,0,  !- X,Y,Z ==> Vertex 3 {m}
    186.004512325846,-252.331463217251,18;  !- X,Y,Z ==> Vertex 4 {m}

  Shading:Building:Detailed,
    Shading Surface 3,       !- Name
    ,                        !- Transmittance Schedule Name
    ,                        !- Number of Vertices
    269.226288043335,-173.88054420555,18,  !- X,Y,Z ==> Vertex 1 {m}
    170.762417502332,-206.132063564535,18,  !- X,Y,Z ==> Vertex 2 {m}
    186.004512325846,-252.331463217251,18,  !- X,Y,Z ==> Vertex 3 {m}
    284.468971371118,-220.079511644186,18;  !- X,Y,Z ==> Vertex 4 {m}

  Shading:Building:Detailed,
    Shading Surface 4,       !- Name
    ,                        !- Transmittance Schedule Name
    ,                        !- Number of Vertices
    284.468971371118,-220.079511644186,0,  !- X,Y,Z ==> Vertex 1 {m}
    186.004512325846,-252.331463217251,0,  !- X,Y,Z ==> Vertex 2 {m}
    170.762417502332,-206.132063564535,0,  !- X,Y,Z ==> Vertex 3 {m}
    269.226288043335,-173.88054420555,0;  !- X,Y,Z ==> Vertex 4 {m}

  Shading:Building:Detailed,
    Shading Surface 5,       !- Name
    ,                        !- Transmittance Schedule Name
    ,                        !- Number of Vertices
    269.226288043335,-173.88054420555,18,  !- X,Y,Z ==> Vertex 1 {m}
    269.226288043335,-173.88054420555,0,  !- X,Y,Z ==> Vertex 2 {m}
    170.762417502332,-206.132063564535,0,  !- X,Y,Z ==> Vertex 3 {m}
    170.762417502332,-206.132063564535,18;  !- X,Y,Z ==> Vertex 4 {m}

  Shading:Building:Detailed,
    Shading Surface 6,       !- Name
    ,                        !- Transmittance Schedule Name
    ,                        !- Number of Vertices
    284.468971371118,-220.079511644186,18,  !- X,Y,Z ==> Vertex 1 {m}
    284.468971371118,-220.079511644186,0,  !- X,Y,Z ==> Vertex 2 {m}
    269.226288043335,-173.88054420555,0,  !- X,Y,Z ==> Vertex 3 {m}