  ConvergenceLimits,
    0,                       !- Minimum System Timestep {minutes}
    25;                      !- Maximum HVAC Iterations

  Version,23.1;

  Timestep,1;

  LifeCycleCost:Parameters,
    Life Cycle Cost Parameters,  !- Name
    EndOfYear,               !- Discounting Convention
    ConstantDollar,          !- Inflation Approach
    0.03,                    !- Real Discount Rate
    ,                        !- Nominal Discount Rate
    ,                        !- Inflation
    ,                        !- Base Date Month
    2011,                    !- Base Date Year
    ,                        !- Service Date Month
    2011,                    !- Service Date Year
    25,                      !- Length of Study Period in Years
    ,                        !- Tax rate
    None;                    !- Depreciation Method

  LifeCycleCost:UsePriceEscalation,
    U.S. Avg  Commercial-Electricity,  !- LCC Price Escalation Name
    Electricity,             !- Resource
    2011,                    !- Escalation Start Year
    January,                 !- Escalation Start Month
    0.9838,                  !- Year 1 Escalation
    0.9730,                  !- Year 2 Escalation
    0.9632,                  !- Year 3 Escalation
    0.9611,                  !- Year 4 Escalation
    0.9571,                  !- Year 5 Escalation
    0.9553,                  !- Year 6 Escalation
    0.9539,                  !- Year 7 Escalation
    0.9521,                  !- Year 8 Escalation
    0.9546,                  !- Year 9 Escalation
    0.9550,                  !- <none>
    0.9553,                  !- <none>
    0.9564,                  !- <none>
    0.9575,                  !- <none>
    0.9596,                  !- <none>
    0.9618,                  !- <none>
    0.9614,                  !- <none>
    0.9618,                  !- <none>
    0.9618,                  !- <none>
    0.9593,                  !- <none>
    0.9589,                  !- <none>
    0.9607,                  !- <none>
    0.9625,                  !- <none>
    0.9650,                  !- <none>
    0.9708,                  !- <none>
    0.9751,                  !- <none>
    0.9762,                  !- <none>
    0.9766,                  !- <none>
    0.9766,                  !- <none>
    0.9769,                  !- <none>
    0.9773;                  !- <none>

  LifeCycleCost:UsePriceEscalation,
    U.S. Avg  Commercial-Distillate Oil,  !- LCC Price Escalation Name
    FuelOilNo1,              !- Resource
    2011,                    !- Escalation Start Year
    January,                 !- Escalation Start Month
    0.9714,                  !- Year 1 Escalation
    0.9730,                  !- Year 2 Escalation
    0.9942,                  !- Year 3 Escalation
    1.0164,                  !- Year 4 Escalation
    1.0541,                  !- Year 5 Escalation
    1.0928,                  !- Year 6 Escalation
    1.1267,                  !- Year 7 Escalation
    1.1580,                  !- Year 8 Escalation
    1.1792,                  !- Year 9 Escalation
    1.1967,                  !- <none>
    1.2200,                  !- <none>
    1.2333,                  !- <none>
    1.2566,                  !- <none>
    1.2709,                  !- <none>
    1.2826,                  !- <none>
    1.2985,                  !- <none>
    1.3102,                  !- <none>
    1.3250,                  !- <none>
    1.3261,                  !- <none>
    1.3282,                  !- <none>
    1.3324,                  !- <none>
    1.3356,                  !- <none>
    1.3431,                  !- <none>
    1.3510,                  !- <none>
    1.3568,                  !- <none>
    1.3606,                  !- <none>
    1.3637,                  !- <none>
    1.3674,                  !- <none>
    1.3706,                  !- <none>
    1.3743;                  !- <none>

  LifeCycleCost:UsePriceEscalation,
    U.S. Avg  Commercial-Residual Oil,  !- LCC Price Escalation Name
    FuelOilNo2,              !- Resource
    2011,                    !- Escalation Start Year
    January,                 !- Escalation Start Month
    0.8469,                  !- Year 1 Escalation
    0.8257,                  !- Year 2 Escalation
    0.8681,                  !- Year 3 Escalation
    0.8988,                  !- Year 4 Escalation
    0.9289,                  !- Year 5 Escalation
    0.9604,                  !- Year 6 Escalation
    0.9897,                  !- Year 7 Escalation
    1.0075,                  !- Year 8 Escalation
    1.0314,                  !- Year 9 Escalation
    1.0554,                  !- <none>
    1.0861,                  !- <none>
    1.1278,                  !- <none>
    1.1497,                  !- <none>
    1.1620,                  !- <none>
    1.1743,                  !- <none>
    1.1852,                  !- <none>
    1.1948,                  !- <none>
    1.2037,                  !- <none>
    1.2071,                  !- <none>
    1.2119,                  !- <none>
    1.2139,                  !- <none>
    1.2194,                  !- <none>
    1.2276,                  !- <none>
    1.2365,                  !- <none>
    1.2420,                  !- <none>
    1.2461,                  !- <none>
    1.2509,                  !- <none>
    1.2550,                  !- <none>
    1.2591,                  !- <none>
    1.2638;                  !- <none>

  LifeCycleCost:UsePriceEscalation,
    U.S. Avg  Commercial-Natural gas,  !- LCC Price Escalation Name
    NaturalGas,              !- Resource
    2011,                    !- Escalation Start Year
    January,                 !- Escalation Start Month
    0.9823,                  !- Year 1 Escalation
    0.9557,                  !- Year 2 Escalation
    0.9279,                  !- Year 3 Escalation
    0.9257,                  !- Year 4 Escalation
    0.9346,                  !- Year 5 Escalation
    0.9412,                  !- Year 6 Escalation
    0.9512,                  !- Year 7 Escalation
    0.9645,                  !- Year 8 Escalation
    0.9856,                  !- Year 9 Escalation
    1.0067,                  !- <none>
    1.0222,                  !- <none>
    1.0410,                  !- <none>
    1.0610,                  !- <none>
    1.0787,                  !- <none>
    1.0942,                  !- <none>
    1.1098,                  !- <none>
    1.1220,                  !- <none>
    1.1308,                  !- <none>
    1.1386,                  !- <none>
    1.1486,                  !- <none>
    1.1619,                  !- <none>
    1.1763,                  !- <none>
    1.1918,                  !- <none>
    1.2118,                  !- <none>
    1.2284,                  !- <none>
    1.2439,                  !- <none>
    1.2605,                  !- <none>
    1.2772,                  !- <none>
    1.2938,                  !- <none>
    1.3115;                  !- <none>

  LifeCycleCost:UsePriceEscalation,
    U.S. Avg  Commercial-Coal,  !- LCC Price Escalation Name
    Coal,                    !- Resource
    2011,                    !- Escalation Start Year
    January,                 !- Escalation Start Month
    0.9970,                  !- Year 1 Escalation
    1.0089,                  !- Year 2 Escalation
    1.0089,                  !- Year 3 Escalation
    0.9941,                  !- Year 4 Escalation
    0.9941,                  !- Year 5 Escalation
    1.0000,                  !- Year 6 Escalation
    1.0030,                  !- Year 7 Escalation
    1.0059,                  !- Year 8 Escalation
    1.0089,                  !- Year 9 Escalation
    1.0119,                  !- <none>
    1.0148,                  !- <none>
    1.0178,                  !- <none>
    1.0208,                  !- <none>
    1.0267,                  !- <none>
    1.0297,                  !- <none>
    1.0356,                  !- <none>
    1.0415,                  !- <none>
    1.0534,                  !- <none>
    1.0564,                  !- <none>
    1.0593,                  !- <none>
    1.0653,                  !- <none>
    1.0712,                  !- <none>
    1.0742,                  !- <none>
    1.0801,                  !- <none>
    1.0831,                  !- <none>
    1.0831,                  !- <none>
    1.0861,                  !- <none>
    1.0890,                  !- <none>
    1.0920,                  !- <none>
    1.0950;                  !- <none>

  Building,
    bld_37,                  !- Name
    ,                        !- North Axis {deg}
    City,                    !- Terrain
    ,                        !- Loads Convergence Tolerance Value {W}
    ,                        !- Temperature Convergence Tolerance Value {deltaC}
    ,                        !- Solar Distribution
    ,                        !- Maximum Number of Warmup Days
    ;                        !- Minimum Number of Warmup Days

  Shading:Building:Detailed,
    Shading Surface 46,      !- Name
    ,                        !- Transmittance Schedule Name
    ,                        !- Number of Vertices
    -199.542286649737,114.838733123247,12,  !- X,Y,Z ==> Vertex 1 {m}
    -199.877376257778,109.507864019215,12,  !- X,Y,Z ==> Vertex 2 {m}
    -207.748529606094,109.952324619855,12,  !- X,Y,Z ==> Vertex 3 {m}
    -209.842973329041,73.6357774549021,12,  !- X,Y,Z ==> Vertex 4 {m}
    -140.676931045598,69.6359510040308,12,  !- X,Y,Z ==> Vertex 5 {m}
    -138.666610039309,103.731320198891,12,  !- X,Y,Z ==> Vertex 6 {m}
    -147.626337448705,104.286796494084,12,  !- X,Y,Z ==> Vertex 7 {m}
    -147.207505127758,111.838865556187,12;  !- X,Y,Z ==> Vertex 8 {m}

  Shading:Building:Detailed,
    Shading Surface 47,      !- Name
    ,                        !- Transmittance Schedule Name
    ,                        !- Number of Vertices
    -209.842973329041,73.6357774549021,12,  !- X,Y,Z ==> Vertex 1 {m}
    -209.842973329041,73.6357774549021,0,  !- X,Y,Z ==> Vertex 2 {m}
    -140.676931045598,69.6359510040308,0,  !- X,Y,Z ==> Vertex 3 {m}
    -140.676931045598,69.6359510040308,12;  !- X,Y,Z ==> Vertex 4 {m}

  Shading:Building:Detailed,
    Shading Surface 48,      !- Name
    ,                        !- Transmittance Schedule Name
    ,                        !- Number of Vertices
    -147.207505127758,111.838865556187,0,  !- X,Y,Z ==> Vertex 1 {m}
    -147.626337448705,104.286796494084,0,  !- X,Y,Z ==> Vertex 2 {m}
    -138.666610039309,103.731320198891,0,  !- X,Y,Z ==> Vertex 3 {m}
    -140.676931045598,69.6359510040308,0,  !- X,Y,Z ==> Vertex 4 {m}
    -209.842973329041,73.6357774549021,0,  !- X,Y,Z ==> Vertex 5 {m}
    -207.748529606094,109.952324619855,0,  !- X,Y,Z ==> Vertex 6 {m}
    -199.877376257778,109.507864019215,0,  !- X,Y,Z ==> Vertex 7 {m}
    -199.542286649737,114.838733123247,0;  !- X,Y,Z ==> Vertex 8 {m}

  Shading:Building:Detailed,
    Shading Surface 49,      !- Name
    ,                        !- Transmittance Schedule Name
    ,                        !- Number of Vertices
    -147.626337448705,104.286796494084,12,  !- X,Y,Z ==> Vertex 1 {m}
    -147.626337448705,104.286796494084,0,  !- X,Y,Z ==> Vertex 2 {m}
    -147.207505127758,111.838865556187,0,  !- X,Y,Z ==> Vertex 3 {m}
    -147.207505127758,111.838865556187,12;  !- X,Y,Z ==> Vertex 4 {m}

  Shading:Building:Detailed,
    Shading Surface 50,      !- Name
    ,                        !- Transmittance Schedule Name
    ,                        !- Number of Vertices
    -199.877376257778,109.507864019215,12,  !- X,Y,Z ==> Vertex 1 {m}
    -199.877376257778,109.507864019215,0,  !- X,Y,Z ==> Vertex 2 {m}
    -207.748529606094,109.952324619855,0,  !- X,Y,Z ==> Vertex 3 {m}
    -207.748529606094,109.952324619855,12;  !- X,Y,Z ==> Vertex 4 {m}

  Shading:Building:Detailed,
    Shading Surface 51,      !- Name
    ,                        !- Transmittance Schedule Name
    ,                        !- Number of Vertices
    -138.666610039309,103.731320198891,12,  !- X,Y,Z ==> Vertex 1 {m}
    -138.666610039309,103.731320198891,0,  !- X,Y,Z ==> Vertex 2 {m}
    -147.626337448705,104.286796494084,0,  !- X,Y,Z ==> Vertex 3 {m}
    -147.626337448705,104.286796494084,12;  !- X,Y,Z ==> Vertex 4 {m}

  Shading:Building:Detailed,
    Shading Surface 52,      !- Name
    ,                        !- Transmittance Schedule Name
    ,                        !- Number of Vertices
    -147.207505127758,111.838865556187,12,  !- X,Y,Z ==> Vertex 1 {m}
    -147.207505127758,111.838865556187,0,  !- X,Y,Z ==> Vertex 2 {m}
    -199.542286649737,114.838733123247,0,  !- X,Y,Z ==> Vertex 3 {m}
    -199.542286649737,114.838733123247,12;  !- X,Y,Z ==> Vertex 4 {m}

  Shading:Building:Detailed,
    Shading Surface 53,      !- Name
    ,                        !- Transmittance Schedule Name
    ,                        !- Number of Vertices
    -207.748529606094,109.952324619855,12,  !- X,Y,Z ==> Vertex 1 {m}
    -207.748529606094,109.952324619855,0,  !- X,Y,Z ==> Vertex 2 {m}
    -209.842973329041,73.6357774549021,0,  !- X,Y,Z ==> Vertex 3 {m}
    -209.842973329041,73.6357774549021,12;  !- X,Y,Z ==> Vertex 4 {m}

  Shading:Building:Detailed,
    Shading Surface 54,      !- Name
    ,                        !- Transmittance Schedule Name
    ,                        !- Number of Vertices
    -199.542286649737,114.838733123247,12,  !- X,Y,Z ==> Vertex 1 {m}
    -199.542286649737,114.838733123247,0,  !- X,Y,Z ==> Vertex 2 {m}
    -199.877376257778,109.507864019215,0,  !- X,Y,Z ==> Vertex 3 {m}
    -199.877376257778,109.507864019215,12;  !- X,Y,Z ==> Vertex 4 {m}

  Shading:Building:Detailed,
    Shading Surface 55,      !- Name
    ,                        !- Transmittance Schedule Name
    ,                        !- Number of Vertices
    -140.676931045598,69.6359510040308,12,  !- X,Y,Z ==> Vertex 1 {m}
    -140.676931045598,69.6359510040308,0,  !- X,Y,Z ==> Vertex 2 {m}
    -138.666610039309,103.731320198891,0,  !- X,Y,Z ==> Vertex 3 {m}
    -138.666610039309,103.731320198891,12;  !- X,Y,Z ==> Vertex 4 {m}

  Shading:Building:Detailed,
    Shading Surface 56,      !- Name
    ,                        !- Transmittance Schedule Name
    ,                        !- Number of Vertices
    -26.1259117993776,15.1041996910566,12,  !- X,Y,Z ==> Vertex 1 {m}
    -26.1259117993776,15.1041996910566,0,  !- X,Y,Z ==> Vertex 2 {m}
    -25.2047550922696,29.7641097252296,0,  !- X,Y,Z ==> Vertex 3 {m}
    -25.2047550922696,29.7641097252296,12;  !- X,Y,Z ==> Vertex 4 {m}

  Shading:Building:Detailed,
    Shading Surface 57,      !- Name
    ,                        !- Transmittance Schedule Name
    ,                        !- Number of Vertices
    -25.2047550922696,29.7641097252296,12,  !- X,Y,Z ==> Vertex 1 {m}
    -25.2047550922696,29.7641097252296,0,  !- X,Y,Z ==> Vertex 2 {m}
    -44.2129848884678,30.9858599615531,0,  !- X,Y,Z ==> Vertex 3 {m}
    -44.2129848884678,30.9858599615531,12;  !- X,Y,Z ==> Vertex 4 {m}

  Shading:Building:Detailed,
    Shading Surface 58,      !- Name
    ,                        !- Transmittance Schedule Name
    ,                        !- Number of Vertices
    -43.7942551420969,38.6489940660616,0,  !- X,Y,Z ==> Vertex 1 {m}
    -44.2129848884678,30.9858599615531,0,  !- X,Y,Z ==> Vertex 2 {m}
    -25.2047550922696,29.7641097252296,0,  !- X,Y,Z ==> Vertex 3 {m}
    -26.1259117993776,15.1041996910566,0,  !- X,Y,Z ==> Vertex 4 {m}
    -80.3036472067847,18.4363948371045,0,  !- X,Y,Z ==> Vertex 5 {m}
    -79.2986376759439,33.7626568721662,0,  !- X,Y,Z ==> Vertex 6 {m}
    -63.4724135436408,32.7629618611168,0,  !- X,Y,Z ==> Vertex 7 {m}
    -63.0536684082422,39.8707951152026,0;  !- X,Y,Z ==> Vertex 8 {m}

  Shading:Building:Detailed,
    Shading Surface 59,      !- Name
    ,                        !- Transmittance Schedule Name
    ,                        !- Number of Vertices
    -43.7942551420969,38.6489940660616,12,  !- X,Y,Z ==> Vertex 1 {m}
    -43.7942551420969,38.6489940660616,0,  !- X,Y,Z ==> Vertex 2 {m}
    -63.0536684082422,39.8707951152026,0,  !- X,Y,Z ==> Vertex 3 {m}
    -63.0536684082422,39.8707951152026,12;  !- X,Y,Z ==> Vertex 4 {m}

  Shading:Building:Detailed,
    Shading Surface 60,      !- Name
    ,                        !- Transmittance Schedule Name
    ,                        !- Number of Vertices
    -80.3036472067847,18.4363948371045,12,  !- X,Y,Z ==> Vertex 1 {m}
    -80.3036472067847,18.4363948371045,0,  !- X,Y,Z ==> Vertex 2 {m}
    -26.1259117993776,15.1041996910566,0,  !- X,Y,Z ==> Vertex 3 {m}
    -26.1259117993776,15.1041996910566,12;  !- X,Y,Z ==> Vertex 4 {m}

  Shading:Building:Detailed,
    Shading Surface 61,      !- Name
    ,                        !- Transmittance Schedule Name
    ,                        !- Number of Vertices
    -44.2129848884678,30.9858599615531,12,  !- X,Y,Z ==> Vertex 1 {m}
    -44.2129848884678,30.9858599615531,0,  !- X,Y,Z ==> Vertex 2 {m}
    -43.7942551420969,38.6489940660616,0,  !- X,Y,Z ==> Vertex 3 {m}
    -43.7942551420969,38.6489940660616,12;  !- X,Y,Z ==> Vertex 4 {m}

  Shading:Building:Detailed,
    Shading Surface 62,      !- Name
    ,                        !- Transmittance Schedule Name
    ,                        !- Number of Vertices
    -63.0536684082422,39.8707951152026,12,  !- X,Y,Z ==> Vertex 1 {m}
    -63.4724135436408,32.7629618611168,12,  !- X,Y,Z ==> Vertex 2 {m}
    -79.2986376759439,33.7626568721662,12,  !- X,Y,Z ==> Vertex 3 {m}
    -80.3036472067847,18.4363948371045,12,  !- X,Y,Z ==> Vertex 4 {m}
    -26.1259117993776,15.1041996910566,12,  !- X,Y,Z ==> Vertex 5 {m}
    -25.2047550922696,29.7641097252296,12,  !- X,Y,Z ==> Vertex 6 {m}
    -44.2129848884678,30.9858599615531,12,  !- X,Y,Z ==> Vertex 7 {m}
    -43.7942551420969,38.6489940660616,12;  !- X,Y,Z ==> Vertex 8 {m}

  Shading:Building:Detailed,
    Shading Surface 63,      !- Name
    ,                        !- Transmittance Schedule Name
    ,                        !- Number of Vertices
    -79.2986376759439,33.7626568721662,12,  !- X,Y,Z ==> Vertex 1 {m}
    -79.2986376759439,33.7626568721662,0,  !- X,Y,Z ==> Vertex 2 {m}
    -80.3036472067847,18.4363948371045,0,  !- X,Y,Z ==> Vertex 3 {m}
    -80.3036472067847,18.4363948371045,12;  !- X,Y,Z ==> Vertex 4 {m}

  Shading:Building:Detailed,
    Shading Surface 64,      !- Name
    ,                        !- Transmittance Schedule Name
    ,                        !- Number of Vertices
    -63.4724135436408,32.7629618611168,12,  !- X,Y,Z ==> Vertex 1 {m}
    -63.4724135436408,32.7629618611168,0,  !- X,Y,Z ==> Vertex 2 {m}
    -79.2986376759439,33.7626568721662,0,  !- X,Y,Z ==> Vertex 3 {m}
    -79.2986376759439,33.7626568721662,12;  !- X,Y,Z ==> Vertex 4 {m}

  Shading:Building:Detailed,
    Shading Surface 65,      !- Name
    ,                        !- Transmittance Schedule Name
    ,                        !- Number of Vertices
    -63.0536684082422,39.8707951152026,12,  !- X,Y,Z ==> Vertex 1 {m}
    -63.0536684082422,39.8707951152026,0,  !- X,Y,Z ==> Vertex 2 {m}
    -63.4724135436408,32.7629618611168,0,  !- X,Y,Z ==> Vertex 3 {m}
    -63.4724135436408,32.7629618611168,12;  !- X,Y,Z ==> Vertex 4 {m}

  Shading:Building:Detailed,
    Shading Surface 66,      !- Name
    ,                        !- Transmittance Schedule Name
    ,                        !- Number of Vertices
    -223.403396676655,231.230281677225,12,  !- X,Y,Z ==> Vertex 1 {m}
    -223.403396676655,231.230281677225,0,  !- X,Y,Z ==> Vertex 2 {m}
    -222.56571247174,242.336254623126,0,  !- X,Y,Z ==> Vertex 3 {m}
    -222.56571247174,242.336254623126,12;  !- X,Y,Z ==> Vertex 4 {m}

  Shading:Building:Detailed,
    Shading Surface 67,      !- Name
    ,                        !- Transmittance Schedule Name
    ,                        !- Number of Vertices
    -241.742210721546,201.799973072943,12,  !- X,Y,Z ==> Vertex 1 {m}
    -241.742210721546,201.799973072943,0,  !- X,Y,Z ==> Vertex 2 {m}
    -240.988255499917,212.128526294396,0,  !- X,Y,Z ==> Vertex 3 {m}
    -240.988255499917,212.128526294396,12;  !- X,Y,Z ==> Vertex 4 {m}

  Shading:Building:Detailed,
    Shading Surface 68,      !- Name
    ,                        !- Transmittance Schedule Name
    ,                        !- Number of Vertices
    -260.079118383672,229.787721843926,12,  !- X,Y,Z ==> Vertex 1 {m}
    -260.079118383672,229.787721843926,0,  !- X,Y,Z ==> Vertex 2 {m}
    -262.507444735896,229.010389256876,0,  !- X,Y,Z ==> Vertex 3 {m}
    -262.507444735896,229.010389256876,12;  !- X,Y,Z ==> Vertex 4 {m}

  Shading:Building:Detailed,
    Shading Surface 69,      !- Name
    ,                        !- Transmittance Schedule Name
    ,                        !- Number of Vertices
    -235.12718378626,201.24445613949,12,  !- X,Y,Z ==> Vertex 1 {m}
    -235.12718378626,201.24445613949,0,  !- X,Y,Z ==> Vertex 2 {m}
    -241.742210721546,201.799973072943,0,  !- X,Y,Z ==> Vertex 3 {m}
    -241.742210721546,201.799973072943,12;  !- X,Y,Z ==> Vertex 4 {m}

  Shading:Building:Detailed,
    Shading Surface 70,      !- Name
    ,                        !- Transmittance Schedule Name
    ,                        !- Number of Vertices
    -222.56571247174,242.336254623126,12,  !- X,Y,Z ==> Vertex 1 {m}
    -222.56571247174,242.336254623126,0,  !- X,Y,Z ==> Vertex 2 {m}
    -224.407691691578,248.000370652955,0,  !- X,Y,Z ==> Vertex 3 {m}
    -224.407691691578,248.000370652955,12;  !- X,Y,Z ==> Vertex 4 {m}

  Shading:Building:Detailed,
    Shading Surface 71,      !- Name
    ,                        !- Transmittance Schedule Name
    ,                        !- Number of Vertices
    -224.407691691578,248.000370652955,0,  !- X,Y,Z ==> Vertex 1 {m}
    -222.56571247174,242.336254623126,0,  !- X,Y,Z ==> Vertex 2 {m}
    -223.403396676655,231.230281677225,0,  !- X,Y,Z ==> Vertex 3 {m}
    -225.915453038885,230.452939434794,0,  !- X,Y,Z ==> Vertex 4 {m}
    -226.166763434797,227.010087712948,0,  !- X,Y,Z ==> Vertex 5 {m}
    -230.772204313504,225.566452696867,0,  !- X,Y,Z ==> Vertex 6 {m}
    -231.107265818327,221.679363897549,0,  !- X,Y,Z ==> Vertex 7 {m}
    -237.722361651774,219.569437580866,0,  !- X,Y,Z ==> Vertex 8 {m}
    -238.308754732876,211.90631797219,0,  !- X,Y,Z ==> Vertex 9 {m}
    -240.988255499917,212.128526294396,0,  !- X,Y,Z ==> Vertex 10 {m}
    -241.742210721546,201.799973072943,0,  !- X,Y,Z ==> Vertex 11 {m}
    -235.12718378626,201.24445613949,0,  !- X,Y,Z ==> Vertex 12 {m}
    -226.168432878008,173.368117360889,0,  !- X,Y,Z ==> Vertex 13 {m}
    -226.838590792622,164.48334027074,0,  !- X,Y,Z ==> Vertex 14 {m}
    -244.422936572397,165.705570119625,0,  !- X,Y,Z ==> Vertex 15 {m}
    -244.590504081476,162.818016436796,0,  !- X,Y,Z ==> Vertex 16 {m}
    -266.194123302863,164.484675237651,0,  !- X,Y,Z ==> Vertex 17 {m}
    -261.502743451921,225.900673458618,0,  !- X,Y,Z ==> Vertex 18 {m}
    -262.507444735896,229.010389256876,0,  !- X,Y,Z ==> Vertex 19 {m}
    -260.079118383672,229.787721843926,0,  !- X,Y,Z ==> Vertex 20 {m}
    -258.571159805145,250.555885622799,0;  !- X,Y,Z ==> Vertex 21 {m}

  Shading:Building:Detailed,
    Shading Surface 72,      !- Name
    ,                        !- Transmittance Schedule Name
    ,                        !- Number of Vertices
    -230.772204313504,225.566452696867,12,  !- X,Y,Z ==> Vertex 1 {m}
    -230.772204313504,225.566452696867,0,  !- X,Y,Z ==> Vertex 2 {m}
    -226.166763434797,227.010087712948,0,  !- X,Y,Z ==> Vertex 3 {m}
    -226.166763434797,227.010087712948,12;  !- X,Y,Z ==> Vertex 4 {m}

  Shading:Building:Detailed,
    Shading Surface 73,      !- Name
    ,                        !- Transmittance Schedule Name
    ,                        !- Number of Vertices
    -244.422936572397,165.705570119625,12,  !- X,Y,Z ==> Vertex 1 {m}
    -244.422936572397,165.705570119625,0,  !- X,Y,Z ==> Vertex 2 {m}
    -226.838590792622,164.48334027074,0,  !- X,Y,Z ==> Vertex 3 {m}
    -226.838590792622,164.48334027074,12;  !- X,Y,Z ==> Vertex 4 {m}

  Shading:Building:Detailed,
    Shading Surface 74,      !- Name
    ,                        !- Transmittance Schedule Name
    ,                        !- Number of Vertices
    -258.571159805145,250.555885622799,12,  !- X,Y,Z ==> Vertex 1 {m}
    -258.571159805145,250.555885622799,0,  !- X,Y,Z ==> Vertex 2 {m}
    -260.079118383672,229.787721843926,0,  !- X,Y,Z ==> Vertex 3 {m}
    -260.079118383672,229.787721843926,12;  !- X,Y,Z ==> Vertex 4 {m}

  Shading:Building:Detailed,
    Shading Surface 75,      !- Name
    ,                        !- Transmittance Schedule Name
    ,                        !- Number of Vertices
    -266.194123302863,164.484675237651,12,  !- X,Y,Z ==> Vertex 1 {m}
    -266.194123302863,164.484675237651,0,  !- X,Y,Z ==> Vertex 2 {m}
    -244.590504081476,162.818016436796,0,  !- X,Y,Z ==> Vertex 3 {m}
    -244.590504081476,162.818016436796,12;  !- X,Y,Z ==> Vertex 4 {m}

  Shading:Building:Detailed,
    Shading Surface 76,      !- Name
    ,                        !- Transmittance Schedule Name
    ,                        !- Number of Vertices
    -237.722361651774,219.569437580866,12,  !- X,Y,Z ==> Vertex 1 {m}
    -237.722361651774,219.569437580866,0,  !- X,Y,Z ==> Vertex 2 {m}
    -231.107265818327,221.679363897549,0,  !- X,Y,Z ==> Vertex 3 {m}
    -231.107265818327,221.679363897549,12;  !- X,Y,Z ==> Vertex 4 {m}

  Shading:Building:Detailed,
    Shading Surface 77,      !- Name
    ,                        !- Transmittance Schedule Name
    ,                        !- Number of Vertices
    -231.107265818327,221.679363897549,12,  !- X,Y,Z ==> Vertex 1 {m}
    -231.107265818327,221.679363897549,0,  !- X,Y,Z ==> Vertex 2 {m}
    -230.772204313504,225.566452696867,0,  !- X,Y,Z ==> Vertex 3 {m}
    -230.772204313504,225.566452696867,12;  !- X,Y,Z ==> Vertex 4 {m}

  Shading:Building:Detailed,
    Shading Surface 78,      !- Name
    ,                        !- Transmittance Schedule Name
    ,                        !- Number of Vertices
    -238.308754732876,211.90631797219,12,  !- X,Y,Z ==> Vertex 1 {m}
    -238.308754732876,211.90631797219,0,  !- X,Y,Z ==> Vertex 2 {m}
    -237.722361651774,219.569437580866,0,  !- X,Y,Z ==> Vertex 3 {m}
    -237.722361651774,219.569437580866,12;  !- X,Y,Z ==> Vertex 4 {m}

  Shading:Building:Detailed,
    Shading Surface 79,      !- Name
    ,                        !- Transmittance Schedule Name
    ,                        !- Number of Vertices
    -262.507444735896,229.010389256876,12,  !- X,Y,Z ==> Vertex 1 {m}
    -262.507444735896,229.010389256876,0,  !- X,Y,Z ==> Vertex 2 {m}
    -261.502743451921,225.900673458618,0,  !- X,Y,Z ==> Vertex 3 {m}
    -261.502743451921,225.900673458618,12;  !- X,Y,Z ==> Vertex 4 {m}

  Shading:Building:Detailed,
    Shading Surface 80,      !- Name
    ,                        !- Transmittance Schedule Name
    ,                        !- Number of Vertices
    -244.590504081476,162.818016436796,12,  !- X,Y,Z ==> Vertex 1 {m}
    -244.590504081476,162.818016436796,0,  !- X,Y,Z ==> Vertex 2 {m}
    -244.422936572397,165.705570119625,0,  !- X,Y,Z ==> Vertex 3 {m}
    -244.422936572397,165.705570119625,12;  !- X,Y,Z ==> Vertex 4 {m}

  Shading:Building:Detailed,
    Shading Surface 81,      !- Name
    ,                        !- Transmittance Schedule Name
    ,                        !- Number of Vertices
    -226.838590792622,164.48334027074,12,  !- X,Y,Z ==> Vertex 1 {m}
    -226.838590792622,164.48334027074,0,  !- X,Y,Z ==> Vertex 2 {m}
    -226.168432878008,173.368117360889,0,  !- X,Y,Z ==> Vertex 3 {m}
    -226.168432878008,173.368117360889,12;  !- X,Y,Z ==> Vertex 4 {m}

  Shading:Building:Detailed,
    Shading Surface 82,      !- Name
    ,                        !- Transmittance Schedule Name
    ,                        !- Number of Vertices
    -261.502743451921,225.900673458618,12,  !- X,Y,Z ==> Vertex 1 {m}
    -261.502743451921,225.900673458618,0,  !- X,Y,Z ==> Vertex 2 {m}
    -266.194123302863,164.484675237651,0,  !- X,Y,Z ==> Vertex 3 {m}
    -266.194123302863,164.484675237651,12;  !- X,Y,Z ==> Vertex 4 {m}

  Shading:Building:Detailed,
    Shading Surface 83,      !- Name
    ,                        !- Transmittance Schedule Name
    ,                        !- Number of Vertices
    -240.988255499917,212.128526294396,12,  !- X,Y,Z ==> Vertex 1 {m}
    -240.988255499917,212.128526294396,0,  !- X,Y,Z ==> Vertex 2 {m}
    -238.308754732876,211.90631797219,0,  !- X,Y,Z ==> Vertex 3 {m}
    -238.308754732876,211.90631797219,12;  !- X,Y,Z ==> Vertex 4 {m}

  Shading:Building:Detailed,
    Shading Surface 84,      !- Name
    ,                        !- Transmittance Schedule Name
    ,                        !- Number of Vertices
    -258.571159805145,250.555885622799,12,  !- X,Y,Z ==> Vertex 1 {m}
    -260.079118383672,229.787721843926,12,  !- X,Y,Z ==> Vertex 2 {m}
    -262.507444735896,229.010389256876,12,  !- X,Y,Z ==> Vertex 3 {m}
    -261.502743451921,225.900673458618,12,  !- X,Y,Z ==> Vertex 4 {m}
    -266.194123302863,164.484675237651,12,  !- X,Y,Z ==> Vertex 5 {m}
    -244.590504081476,162.818016436796,12,  !- X,Y,Z ==> Vertex 6 {m}
    -244.422936572397,165.705570119625,12,  !- X,Y,Z ==> Vertex 7 {m}
    -226.838590792622,164.48334027074,12,  !- X,Y,Z ==> Vertex 8 {m}
    -226.168432878008,173.368117360889,12,  !- X,Y,Z ==> Vertex 9 {m}
    -235.12718378626,201.24445613949,12,  !- X,Y,Z ==> Vertex 10 {m}
    -241.742210721546,201.799973072943,12,  !- X,Y,Z ==> Vertex 11 {m}
    -240.988255499917,212.128526294396,12,  !- X,Y,Z ==> Vertex 12 {m}
    -238.308754732876,211.90631797219,12,  !- X,Y,Z ==> Vertex 13 {m}
    -237.722361651774,219.569437580866,12,  !- X,Y,Z ==> Vertex 14 {m}
    -231.107265818327,221.679363897549,12,  !- X,Y,Z ==> Vertex 15 {m}
    -230.772204313504,225.566452696867,12,  !- X,Y,Z ==> Vertex 16 {m}
    -226.166763434797,227.010087712948,12,  !- X,Y,Z ==> Vertex 17 {m}
    -225.915453038885,230.452939434794,12,  !- X,Y,Z ==> Vertex 18 {m}