  ConvergenceLimits,
    0,                       !- Minimum System Timestep {minutes}
    25;                      !- Maximum HVAC Iterations

  Version,23.1;

  Timestep,1;

  LifeCycleCost:Parameters,
    Life Cycle Cost Parameters,  !- Name
    EndOfYear,               !- Discounting Convention
    ConstantDollar,          !- Inflation Approach
    0.03,                    !- Real Discount Rate
    ,                        !- Nominal Discount Rate
    ,                        !- Inflation
    ,                        !- Base Date Month
    2011,                    !- Base Date Year
    ,                        !- Service Date Month
    2011,                    !- Service Date Year
    25,                      !- Length of Study Period in Years
    ,                        !- Tax rate
    None;                    !- Depreciation Method

  LifeCycleCost:UsePriceEscalation,
    U.S. Avg  Commercial-Electricity,  !- LCC Price Escalation Name
    Electricity,             !- Resource
    2011,                    !- Escalation Start Year
    January,                 !- Escalation Start Month
    0.9838,                  !- Year 1 Escalation
    0.9730,                  !- Year 2 Escalation
    0.9632,                  !- Year 3 Escalation
    0.9611,                  !- Year 4 Escalation
    0.9571,                  !- Year 5 Escalation
    0.9553,                  !- Year 6 Escalation
    0.9539,                  !- Year 7 Escalation
    0.9521,                  !- Year 8 Escalation
    0.9546,                  !- Year 9 Escalation
    0.9550,                  !- <none>
    0.9553,                  !- <none>
    0.9564,                  !- <none>
    0.9575,                  !- <none>
    0.9596,                  !- <none>
    0.9618,                  !- <none>
    0.9614,                  !- <none>
    0.9618,                  !- <none>
    0.9618,                  !- <none>
    0.9593,                  !- <none>
    0.9589,                  !- <none>
    0.9607,                  !- <none>
    0.9625,                  !- <none>
    0.9650,                  !- <none>
    0.9708,                  !- <none>
    0.9751,                  !- <none>
    0.9762,                  !- <none>
    0.9766,                  !- <none>
    0.9766,                  !- <none>
    0.9769,                  !- <none>
    0.9773;                  !- <none>

  LifeCycleCost:UsePriceEscalation,
    U.S. Avg  Commercial-Distillate Oil,  !- LCC Price Escalation Name
    FuelOilNo1,              !- Resource
    2011,                    !- Escalation Start Year
    January,                 !- Escalation Start Month
    0.9714,                  !- Year 1 Escalation
    0.9730,                  !- Year 2 Escalation
    0.9942,                  !- Year 3 Escalation
    1.0164,                  !- Year 4 Escalation
    1.0541,                  !- Year 5 Escalation
    1.0928,                  !- Year 6 Escalation
    1.1267,                  !- Year 7 Escalation
    1.1580,                  !- Year 8 Escalation
    1.1792,                  !- Year 9 Escalation
    1.1967,                  !- <none>
    1.2200,                  !- <none>
    1.2333,                  !- <none>
    1.2566,                  !- <none>
    1.2709,                  !- <none>
    1.2826,                  !- <none>
    1.2985,                  !- <none>
    1.3102,                  !- <none>
    1.3250,                  !- <none>
    1.3261,                  !- <none>
    1.3282,                  !- <none>
    1.3324,                  !- <none>
    1.3356,                  !- <none>
    1.3431,                  !- <none>
    1.3510,                  !- <none>
    1.3568,                  !- <none>
    1.3606,                  !- <none>
    1.3637,                  !- <none>
    1.3674,                  !- <none>
    1.3706,                  !- <none>
    1.3743;                  !- <none>

  LifeCycleCost:UsePriceEscalation,
    U.S. Avg  Commercial-Residual Oil,  !- LCC Price Escalation Name
    FuelOilNo2,              !- Resource
    2011,                    !- Escalation Start Year
    January,                 !- Escalation Start Month
    0.8469,                  !- Year 1 Escalation
    0.8257,                  !- Year 2 Escalation
    0.8681,                  !- Year 3 Escalation
    0.8988,                  !- Year 4 Escalation
    0.9289,                  !- Year 5 Escalation
    0.9604,                  !- Year 6 Escalation
    0.9897,                  !- Year 7 Escalation
    1.0075,                  !- Year 8 Escalation
    1.0314,                  !- Year 9 Escalation
    1.0554,                  !- <none>
    1.0861,                  !- <none>
    1.1278,                  !- <none>
    1.1497,                  !- <none>
    1.1620,                  !- <none>
    1.1743,                  !- <none>
    1.1852,                  !- <none>
    1.1948,                  !- <none>
    1.2037,                  !- <none>
    1.2071,                  !- <none>
    1.2119,                  !- <none>
    1.2139,                  !- <none>
    1.2194,                  !- <none>
    1.2276,                  !- <none>
    1.2365,                  !- <none>
    1.2420,                  !- <none>
    1.2461,                  !- <none>
    1.2509,                  !- <none>
    1.2550,                  !- <none>
    1.2591,                  !- <none>
    1.2638;                  !- <none>

  LifeCycleCost:UsePriceEscalation,
    U.S. Avg  Commercial-Natural gas,  !- LCC Price Escalation Name
    NaturalGas,              !- Resource
    2011,                    !- Escalation Start Year
    January,                 !- Escalation Start Month
    0.9823,                  !- Year 1 Escalation
    0.9557,                  !- Year 2 Escalation
    0.9279,                  !- Year 3 Escalation
    0.9257,                  !- Year 4 Escalation
    0.9346,                  !- Year 5 Escalation
    0.9412,                  !- Year 6 Escalation
    0.9512,                  !- Year 7 Escalation
    0.9645,                  !- Year 8 Escalation
    0.9856,                  !- Year 9 Escalation
    1.0067,                  !- <none>
    1.0222,                  !- <none>
    1.0410,                  !- <none>
    1.0610,                  !- <none>
    1.0787,                  !- <none>
    1.0942,                  !- <none>
    1.1098,                  !- <none>
    1.1220,                  !- <none>
    1.1308,                  !- <none>
    1.1386,                  !- <none>
    1.1486,                  !- <none>
    1.1619,                  !- <none>
    1.1763,                  !- <none>
    1.1918,                  !- <none>
    1.2118,                  !- <none>
    1.2284,                  !- <none>
    1.2439,                  !- <none>
    1.2605,                  !- <none>
    1.2772,                  !- <none>
    1.2938,                  !- <none>
    1.3115;                  !- <none>

  LifeCycleCost:UsePriceEscalation,
    U.S. Avg  Commercial-Coal,  !- LCC Price Escalation Name
    Coal,                    !- Resource
    2011,                    !- Escalation Start Year
    January,                 !- Escalation Start Month
    0.9970,                  !- Year 1 Escalation
    1.0089,                  !- Year 2 Escalation
    1.0089,                  !- Year 3 Escalation
    0.9941,                  !- Year 4 Escalation
    0.9941,                  !- Year 5 Escalation
    1.0000,                  !- Year 6 Escalation
    1.0030,                  !- Year 7 Escalation
    1.0059,                  !- Year 8 Escalation
    1.0089,                  !- Year 9 Escalation
    1.0119,                  !- <none>
    1.0148,                  !- <none>
    1.0178,                  !- <none>
    1.0208,                  !- <none>
    1.0267,                  !- <none>
    1.0297,                  !- <none>
    1.0356,                  !- <none>
    1.0415,                  !- <none>
    1.0534,                  !- <none>
    1.0564,                  !- <none>
    1.0593,                  !- <none>
    1.0653,                  !- <none>
    1.0712,                  !- <none>
    1.0742,                  !- <none>
    1.0801,                  !- <none>
    1.0831,                  !- <none>
    1.0831,                  !- <none>
    1.0861,                  !- <none>
    1.0890,                  !- <none>
    1.0920,                  !- <none>
    1.0950;                  !- <none>

  Building,
    bld_19,                  !- Name
    ,                        !- North Axis {deg}
    City,                    !- Terrain
    ,                        !- Loads Convergence Tolerance Value {W}
    ,                        !- Temperature Convergence Tolerance Value {deltaC}
    ,                        !- Solar Distribution
    ,                        !- Maximum Number of Warmup Days
    ;                        !- Minimum Number of Warmup Days

  Shading:Building:Detailed,
    Shading Surface 1,       !- Name
    ,                        !- Transmittance Schedule Name
    ,                        !- Number of Vertices
    -235.959204979201,176.367100521925,12,  !- X,Y,Z ==> Vertex 1 {m}
    -236.545945978389,157.597978363909,12,  !- X,Y,Z ==> Vertex 2 {m}
    -227.92144589504,157.375582737633,12,  !- X,Y,Z ==> Vertex 3 {m}
    -227.334727152643,176.144705585644,12;  !- X,Y,Z ==> Vertex 4 {m}

  Shading:Building:Detailed,
    Shading Surface 2,       !- Name
    ,                        !- Transmittance Schedule Name
    ,                        !- Number of Vertices
    -227.334727152643,176.144705585644,0,  !- X,Y,Z ==> Vertex 1 {m}
    -227.92144589504,157.375582737633,0,  !- X,Y,Z ==> Vertex 2 {m}
    -236.545945978389,157.597978363909,0,  !- X,Y,Z ==> Vertex 3 {m}
    -235.959204979201,176.367100521925,0;  !- X,Y,Z ==> Vertex 4 {m}

  Shading:Building:Detailed,
    Shading Surface 3,       !- Name
    ,                        !- Transmittance Schedule Name
    ,                        !- Number of Vertices
    -235.959204979201,176.367100521925,12,  !- X,Y,Z ==> Vertex 1 {m}
    -235.959204979201,176.367100521925,0,  !- X,Y,Z ==> Vertex 2 {m}
    -236.545945978389,157.597978363909,0,  !- X,Y,Z ==> Vertex 3 {m}
    -236.545945978389,157.597978363909,12;  !- X,Y,Z ==> Vertex 4 {m}

  Shading:Building:Detailed,
    Shading Surface 4,       !- Name
    ,                        !- Transmittance Schedule Name
    ,                        !- Number of Vertices
    -227.92144589504,157.375582737633,12,  !- X,Y,Z ==> Vertex 1 {m}
    -227.92144589504,157.375582737633,0,  !- X,Y,Z ==> Vertex 2 {m}
    -227.334727152643,176.144705585644,0,  !- X,Y,Z ==> Vertex 3 {m}
    -227.334727152643,176.144705585644,12;  !- X,Y,Z ==> Vertex 4 {m}

  Shading:Building:Detailed,
    Shading Surface 5,       !- Name
    ,                        !- Transmittance Schedule Name
    ,                        !- Number of Vertices
    -236.545945978389,157.597978363909,12,  !- X,Y,Z ==> Vertex 1 {m}
    -236.545945978389,157.597978363909,0,  !- X,Y,Z ==> Vertex 2 {m}
    -227.92144589504,157.375582737633,0,  !- X,Y,Z ==> Vertex 3 {m}
    -227.92144589504,157.375582737633,12;  !- X,Y,Z ==> Vertex 4 {m}

  Shading:Building:Detailed,
    Shading Surface 6,       !- Name
    ,                        !- Transmittance Schedule Name
    ,                        !- Number of Vertices
    -227.334727152643,176.144705585644,12,  !- X,Y,Z ==> Vertex 1 {m}
    -227.334727152643,176.144705585644,0,  !- X,Y,Z ==> Vertex 2 {m}
    -235.959204979201,176.367100521925,0,  !- X,Y,Z ==> Vertex 3 {m}
    -235.959204979201,176.367100521925,12;  !- X,Y,Z ==> Vertex 4 {m}

  Shading:Building:Detailed,
    Shading Surface 33,      !- Name
    ,                        !- Transmittance Schedule Name
    ,                        !- Number of Vertices
    -52.3332314960628,149.59799658414,12,  !- X,Y,Z ==> Vertex 1 {m}
    -52.3332314960628,149.59799658414,0,  !- X,Y,Z ==> Vertex 2 {m}
    -52.8356773529421,143.156520008442,0,  !- X,Y,Z ==> Vertex 3 {m}
    -52.8356773529421,143.156520008442,12;  !- X,Y,Z ==> Vertex 4 {m}

  Shading:Building:Detailed,
    Shading Surface 34,      !- Name
    ,                        !- Transmittance Schedule Name
    ,                        !- Number of Vertices
    -42.7876925770706,142.379033878095,12,  !- X,Y,Z ==> Vertex 1 {m}
    -42.7876925770706,142.379033878095,0,  !- X,Y,Z ==> Vertex 2 {m}
    -42.0340348348383,152.485489829937,0,  !- X,Y,Z ==> Vertex 3 {m}
    -42.0340348348383,152.485489829937,12;  !- X,Y,Z ==> Vertex 4 {m}

  Shading:Building:Detailed,
    Shading Surface 35,      !- Name
    ,                        !- Transmittance Schedule Name
    ,                        !- Number of Vertices
    -46.220689571497,152.818695266625,12,  !- X,Y,Z ==> Vertex 1 {m}
    -46.220689571497,152.818695266625,0,  !- X,Y,Z ==> Vertex 2 {m}
    -45.6345081206109,160.703951949355,0,  !- X,Y,Z ==> Vertex 3 {m}
    -45.6345081206109,160.703951949355,12;  !- X,Y,Z ==> Vertex 4 {m}

  Shading:Building:Detailed,
    Shading Surface 36,      !- Name
    ,                        !- Transmittance Schedule Name
    ,                        !- Number of Vertices
    -45.6345081206109,160.703951949355,0,  !- X,Y,Z ==> Vertex 1 {m}
    -46.220689571497,152.818695266625,0,  !- X,Y,Z ==> Vertex 2 {m}
    -42.0340348348383,152.485489829937,0,  !- X,Y,Z ==> Vertex 3 {m}
    -42.7876925770706,142.379033878095,0,  !- X,Y,Z ==> Vertex 4 {m}
    -52.8356773529421,143.156520008442,0,  !- X,Y,Z ==> Vertex 5 {m}
    -52.3332314960628,149.59799658414,0,  !- X,Y,Z ==> Vertex 6 {m}
    -69.4985186791262,150.930860524273,0,  !- X,Y,Z ==> Vertex 7 {m}
    -68.5773449731628,162.481092341442,0;  !- X,Y,Z ==> Vertex 8 {m}

  Shading:Building:Detailed,
    Shading Surface 37,      !- Name
    ,                        !- Transmittance Schedule Name
    ,                        !- Number of Vertices
    -42.0340348348383,152.485489829937,12,  !- X,Y,Z ==> Vertex 1 {m}
    -42.0340348348383,152.485489829937,0,  !- X,Y,Z ==> Vertex 2 {m}
    -46.220689571497,152.818695266625,0,  !- X,Y,Z ==> Vertex 3 {m}
    -46.220689571497,152.818695266625,12;  !- X,Y,Z ==> Vertex 4 {m}

  Shading:Building:Detailed,
    Shading Surface 38,      !- Name
    ,                        !- Transmittance Schedule Name
    ,                        !- Number of Vertices
    -69.4985186791262,150.930860524273,12,  !- X,Y,Z ==> Vertex 1 {m}
    -69.4985186791262,150.930860524273,0,  !- X,Y,Z ==> Vertex 2 {m}
    -52.3332314960628,149.59799658414,0,  !- X,Y,Z ==> Vertex 3 {m}
    -52.3332314960628,149.59799658414,12;  !- X,Y,Z ==> Vertex 4 {m}

  Shading:Building:Detailed,
    Shading Surface 39,      !- Name
    ,                        !- Transmittance Schedule Name
    ,                        !- Number of Vertices
    -68.5773449731628,162.481092341442,12,  !- X,Y,Z ==> Vertex 1 {m}
    -68.5773449731628,162.481092341442,0,  !- X,Y,Z ==> Vertex 2 {m}
    -69.4985186791262,150.930860524273,0,  !- X,Y,Z ==> Vertex 3 {m}
    -69.4985186791262,150.930860524273,12;  !- X,Y,Z ==> Vertex 4 {m}

  Shading:Building:Detailed,
    Shading Surface 40,      !- Name
    ,                        !- Transmittance Schedule Name
    ,                        !- Number of Vertices
    -68.5773449731628,162.481092341442,12,  !- X,Y,Z ==> Vertex 1 {m}
    -69.4985186791262,150.930860524273,12,  !- X,Y,Z ==> Vertex 2 {m}
    -52.3332314960628,149.59799658414,12,  !- X,Y,Z ==> Vertex 3 {m}
    -52.8356773529421,143.156520008442,12,  !- X,Y,Z ==> Vertex 4 {m}
    -42.7876925770706,142.379033878095,12,  !- X,Y,Z ==> Vertex 5 {m}
    -42.0340348348383,152.485489829937,12,  !- X,Y,Z ==> Vertex 6 {m}
    -46.220689571497,152.818695266625,12,  !- X,Y,Z ==> Vertex 7 {m}
    -45.6345081206109,160.703951949355,12;  !- X,Y,Z ==> Vertex 8 {m}

  Shading:Building:Detailed,
    Shading Surface 41,      !- Name
    ,                        !- Transmittance Schedule Name
    ,                        !- Number of Vertices
    -52.8356773529421,143.156520008442,12,  !- X,Y,Z ==> Vertex 1 {m}
    -52.8356773529421,143.156520008442,0,  !- X,Y,Z ==> Vertex 2 {m}
    -42.7876925770706,142.379033878095,0,  !- X,Y,Z ==> Vertex 3 {m}
    -42.7876925770706,142.379033878095,12;  !- X,Y,Z ==> Vertex 4 {m}

  Shading:Building:Detailed,
    Shading Surface 42,      !- Name
    ,                        !- Transmittance Schedule Name
    ,                        !- Number of Vertices
    -45.6345081206109,160.703951949355,12,  !- X,Y,Z ==> Vertex 1 {m}
    -45.6345081206109,160.703951949355,0,  !- X,Y,Z ==> Vertex 2 {m}
    -68.5773449731628,162.481092341442,0,  !- X,Y,Z ==> Vertex 3 {m}
    -68.5773449731628,162.481092341442,12;  !- X,Y,Z ==> Vertex 4 {m}

  Shading:Building:Detailed,
    Shading Surface 43,      !- Name
    ,                        !- Transmittance Schedule Name
    ,                        !- Number of Vertices
    -192.595571875227,-200.571736942555,12,  !- X,Y,Z ==> Vertex 1 {m}
    -192.595571875227,-200.571736942555,0,  !- X,Y,Z ==> Vertex 2 {m}
    -201.974117241689,-199.794062743669,0,  !- X,Y,Z ==> Vertex 3 {m}
    -201.974117241689,-199.794062743669,12;  !- X,Y,Z ==> Vertex 4 {m}

  Shading:Building:Detailed,
    Shading Surface 44,      !- Name
    ,                        !- Transmittance Schedule Name
    ,                        !- Number of Vertices
    -214.954880508247,-250.437022532321,12,  !- X,Y,Z ==> Vertex 1 {m}
    -214.954880508247,-250.437022532321,0,  !- X,Y,Z ==> Vertex 2 {m}
    -213.279469818081,-228.114024671352,0,  !- X,Y,Z ==> Vertex 3 {m}
    -213.279469818081,-228.114024671352,12;  !- X,Y,Z ==> Vertex 4 {m}

  Shading:Building:Detailed,
    Shading Surface 45,      !- Name
    ,                        !- Transmittance Schedule Name
    ,                        !- Number of Vertices
    -201.974117241689,-199.794062743669,12,  !- X,Y,Z ==> Vertex 1 {m}
    -201.974117241689,-199.794062743669,0,  !- X,Y,Z ==> Vertex 2 {m}
    -202.057897667109,-201.348899618928,0,  !- X,Y,Z ==> Vertex 3 {m}
    -202.057897667109,-201.348899618928,12;  !- X,Y,Z ==> Vertex 4 {m}

  Shading:Building:Detailed,
    Shading Surface 46,      !- Name
    ,                        !- Transmittance Schedule Name
    ,                        !- Number of Vertices
    -193.600853234827,-216.897521670725,12,  !- X,Y,Z ==> Vertex 1 {m}
    -193.600853234827,-216.897521670725,0,  !- X,Y,Z ==> Vertex 2 {m}
    -171.24300849428,-218.563981987602,0,  !- X,Y,Z ==> Vertex 3 {m}
    -171.24300849428,-218.563981987602,12;  !- X,Y,Z ==> Vertex 4 {m}

  Shading:Building:Detailed,
    Shading Surface 47,      !- Name
    ,                        !- Transmittance Schedule Name
    ,                        !- Number of Vertices
    -192.846877793069,-204.125648450242,12,  !- X,Y,Z ==> Vertex 1 {m}
    -192.846877793069,-204.125648450242,0,  !- X,Y,Z ==> Vertex 2 {m}
    -192.595571875227,-200.571736942555,0,  !- X,Y,Z ==> Vertex 3 {m}
    -192.595571875227,-200.571736942555,12;  !- X,Y,Z ==> Vertex 4 {m}

  Shading:Building:Detailed,
    Shading Surface 48,      !- Name
    ,                        !- Transmittance Schedule Name
    ,                        !- Number of Vertices
    -161.948997140362,-256.324573531055,12,  !- X,Y,Z ==> Vertex 1 {m}
    -161.948997140362,-256.324573531055,0,  !- X,Y,Z ==> Vertex 2 {m}
    -157.92842445857,-203.126951673426,0,  !- X,Y,Z ==> Vertex 3 {m}
    -157.92842445857,-203.126951673426,12;  !- X,Y,Z ==> Vertex 4 {m}

  Shading:Building:Detailed,
    Shading Surface 49,      !- Name
    ,                        !- Transmittance Schedule Name
    ,                        !- Number of Vertices
    -169.14927592745,-205.792137788838,12,  !- X,Y,Z ==> Vertex 1 {m}
    -169.14927592745,-205.792137788838,0,  !- X,Y,Z ==> Vertex 2 {m}
    -192.846877793069,-204.125648450242,0,  !- X,Y,Z ==> Vertex 3 {m}
    -192.846877793069,-204.125648450242,12;  !- X,Y,Z ==> Vertex 4 {m}

  Shading:Building:Detailed,
    Shading Surface 50,      !- Name
    ,                        !- Transmittance Schedule Name
    ,                        !- Number of Vertices
    -232.874174621831,-232.000521032124,12,  !- X,Y,Z ==> Vertex 1 {m}
    -232.874174621831,-232.000521032124,0,  !- X,Y,Z ==> Vertex 2 {m}
    -238.903264859102,-231.556085586058,0,  !- X,Y,Z ==> Vertex 3 {m}
    -238.903264859102,-231.556085586058,12;  !- X,Y,Z ==> Vertex 4 {m}

  Shading:Building:Detailed,
    Shading Surface 51,      !- Name
    ,                        !- Transmittance Schedule Name
    ,                        !- Number of Vertices
    -202.057897667109,-201.348899618928,0,  !- X,Y,Z ==> Vertex 1 {m}
    -201.974117241689,-199.794062743669,0,  !- X,Y,Z ==> Vertex 2 {m}
    -192.595571875227,-200.571736942555,0,  !- X,Y,Z ==> Vertex 3 {m}
    -192.846877793069,-204.125648450242,0,  !- X,Y,Z ==> Vertex 4 {m}
    -169.14927592745,-205.792137788838,0,  !- X,Y,Z ==> Vertex 5 {m}
    -168.897981538751,-202.238225471148,0,  !- X,Y,Z ==> Vertex 6 {m}
    -157.92842445857,-203.126951673426,0,  !- X,Y,Z ==> Vertex 7 {m}
    -161.948997140362,-256.324573531055,0,  !- X,Y,Z ==> Vertex 8 {m}
    -174.007225908341,-255.435815350053,0,  !- X,Y,Z ==> Vertex 9 {m}
    -171.24300849428,-218.563981987602,0,  !- X,Y,Z ==> Vertex 10 {m}
    -193.600853234827,-216.897521670725,0,  !- X,Y,Z ==> Vertex 11 {m}
    -193.852151321323,-220.118253233841,0,  !- X,Y,Z ==> Vertex 12 {m}
    -204.989207627792,-219.340528048262,0,  !- X,Y,Z ==> Vertex 13 {m}
    -205.659370989083,-228.669543997795,0,  !- X,Y,Z ==> Vertex 14 {m}
    -213.279469818081,-228.114024671352,0,  !- X,Y,Z ==> Vertex 15 {m}
    -214.954880508247,-250.437022532321,0,  !- X,Y,Z ==> Vertex 16 {m}
    -240.159889790554,-248.548214424008,0,  !- X,Y,Z ==> Vertex 17 {m}
    -238.903264859102,-231.556085586058,0,  !- X,Y,Z ==> Vertex 18 {m}
    -232.874174621831,-232.000521032124,0,  !- X,Y,Z ==> Vertex 19 {m}
    -231.785104537764,-216.896404140156,0,  !- X,Y,Z ==> Vertex 20 {m}
    -234.213481781663,-216.67420640348,0,  !- X,Y,Z ==> Vertex 21 {m}
    -232.873121266896,-199.126778652682,0;  !- X,Y,Z ==> Vertex 22 {m}

  Shading:Building:Detailed,
    Shading Surface 52,      !- Name
    ,                        !- Transmittance Schedule Name
    ,                        !- Number of Vertices
    -234.213481781663,-216.67420640348,12,  !- X,Y,Z ==> Vertex 1 {m}
    -234.213481781663,-216.67420640348,0,  !- X,Y,Z ==> Vertex 2 {m}
    -231.785104537764,-216.896404140156,0,  !- X,Y,Z ==> Vertex 3 {m}
    -231.785104537764,-216.896404140156,12;  !- X,Y,Z ==> Vertex 4 {m}

  Shading:Building:Detailed,
    Shading Surface 53,      !- Name
    ,                        !- Transmittance Schedule Name
    ,                        !- Number of Vertices
    -238.903264859102,-231.556085586058,12,  !- X,Y,Z ==> Vertex 1 {m}
    -238.903264859102,-231.556085586058,0,  !- X,Y,Z ==> Vertex 2 {m}
    -240.159889790554,-248.548214424008,0,  !- X,Y,Z ==> Vertex 3 {m}
    -240.159889790554,-248.548214424008,12;  !- X,Y,Z ==> Vertex 4 {m}

  Shading:Building:Detailed,
    Shading Surface 54,      !- Name
    ,                        !- Transmittance Schedule Name
    ,                        !- Number of Vertices
    -213.279469818081,-228.114024671352,12,  !- X,Y,Z ==> Vertex 1 {m}
    -213.279469818081,-228.114024671352,0,  !- X,Y,Z ==> Vertex 2 {m}
    -205.659370989083,-228.669543997795,0,  !- X,Y,Z ==> Vertex 3 {m}
    -205.659370989083,-228.669543997795,12;  !- X,Y,Z ==> Vertex 4 {m}

  Shading:Building:Detailed,
    Shading Surface 55,      !- Name
    ,                        !- Transmittance Schedule Name
    ,                        !- Number of Vertices
    -204.989207627792,-219.340528048262,12,  !- X,Y,Z ==> Vertex 1 {m}
    -204.989207627792,-219.340528048262,0,  !- X,Y,Z ==> Vertex 2 {m}
    -193.852151321323,-220.118253233841,0,  !- X,Y,Z ==> Vertex 3 {m}
    -193.852151321323,-220.118253233841,12;  !- X,Y,Z ==> Vertex 4 {m}

  Shading:Building:Detailed,
    Shading Surface 56,      !- Name
    ,                        !- Transmittance Schedule Name
    ,                        !- Number of Vertices
    -202.057897667109,-201.348899618928,12,  !- X,Y,Z ==> Vertex 1 {m}
    -202.057897667109,-201.348899618928,0,  !- X,Y,Z ==> Vertex 2 {m}
    -232.873121266896,-199.126778652682,0,  !- X,Y,Z ==> Vertex 3 {m}
    -232.873121266896,-199.126778652682,12;  !- X,Y,Z ==> Vertex 4 {m}

  Shading:Building:Detailed,
    Shading Surface 57,      !- Name
    ,                        !- Transmittance Schedule Name
    ,                        !- Number of Vertices
    -157.92842445857,-203.126951673426,12,  !- X,Y,Z ==> Vertex 1 {m}
    -157.92842445857,-203.126951673426,0,  !- X,Y,Z ==> Vertex 2 {m}
    -168.897981538751,-202.238225471148,0,  !- X,Y,Z ==> Vertex 3 {m}
    -168.897981538751,-202.238225471148,12;  !- X,Y,Z ==> Vertex 4 {m}

  Shading:Building:Detailed,
    Shading Surface 58,      !- Name
    ,                        !- Transmittance Schedule Name
    ,                        !- Number of Vertices
    -205.659370989083,-228.669543997795,12,  !- X,Y,Z ==> Vertex 1 {m}
    -205.659370989083,-228.669543997795,0,  !- X,Y,Z ==> Vertex 2 {m}
    -204.989207627792,-219.340528048262,0,  !- X,Y,Z ==> Vertex 3 {m}
    -204.989207627792,-219.340528048262,12;  !- X,Y,Z ==> Vertex 4 {m}

  Shading:Building:Detailed,
    Shading Surface 59,      !- Name
    ,                        !- Transmittance Schedule Name
    ,                        !- Number of Vertices
    -240.159889790554,-248.548214424008,12,  !- X,Y,Z ==> Vertex 1 {m}
    -240.159889790554,-248.548214424008,0,  !- X,Y,Z ==> Vertex 2 {m}
    -214.954880508247,-250.437022532321,0,  !- X,Y,Z ==> Vertex 3 {m}
    -214.954880508247,-250.437022532321,12;  !- X,Y,Z ==> Vertex 4 {m}

  Shading:Building:Detailed,
    Shading Surface 60,      !- Name
    ,                        !- Transmittance Schedule Name
    ,                        !- Number of Vertices
    -232.873121266896,-199.126778652682,12,  !- X,Y,Z ==> Vertex 1 {m}
    -234.213481781663,-216.67420640348,12,  !- X,Y,Z ==> Vertex 2 {m}
    -231.785104537764,-216.896404140156,12,  !- X,Y,Z ==> Vertex 3 {m}
    -232.874174621831,-232.000521032124,12,  !- X,Y,Z ==> Vertex 4 {m}
    -238.903264859102,-231.556085586058,12,  !- X,Y,Z ==> Vertex 5 {m}
    -240.159889790554,-248.548214424008,12,  !- X,Y,Z ==> Vertex 6 {m}
    -214.954880508247,-250.437022532321,12,  !- X,Y,Z ==> Vertex 7 {m}
    -213.279469818081,-228.114024671352,12,  !- X,Y,Z ==> Vertex 8 {m}
    -205.659370989083,-228.669543997795,12,  !- X,Y,Z ==> Vertex 9 {m}
    -204.989207627792,-219.340528048262,12,  !- X,Y,Z ==> Vertex 10 {m}
    -193.852151321323,-220.118253233841,12,  !- X,Y,Z ==> Vertex 11 {m}
    -193.600853234827,-216.897521670725,12,  !- X,Y,Z ==> Vertex 12 {m}
    -171.24300849428,-218.563981987602,12,  !- X,Y,Z ==> Vertex 13 {m}
    -174.007225908341,-255.435815350053,12,  !- X,Y,Z ==> Vertex 14 {m}
    -161.948997140362,-256.324573531055,12,  !- X,Y,Z ==> Vertex 15 {m}
    -157.92842445857,-203.126951673426,12,  !- X,Y,Z ==> Vertex 16 {m}
    -168.897981538751,-202.238225471148,12,  !- X,Y,Z ==> Vertex 17 {m}
    -169.14927592745,-205.792137788838,12,  !- X,Y,Z ==> Vertex 18 {m}
    -192.846877793069,-204.125648450242,12,  !- X,Y,Z ==> Vertex 19 {m}
    -192.595571875227,-200.571736942555,12,  !- X,Y,Z ==> Vertex 20 {m}
    -201.974117241689,-199.794062743669,12,  !- X,Y,Z ==> Vertex 21 {m}
    -202.057897667109,-201.348899618928,12;  !- X,Y,Z ==> Vertex 22 {m}

  Shading:Building:Detailed,
    Shading Surface 61,      !- Name
    ,                        !- Transmittance Schedule Name
    ,                        !- Number of Vertices
    -232.873121266896,-199.126778652682,12,  !- X,Y,Z ==> Vertex 1 {m}
    -232.873121266896,-199.126778652682,0,  !- X,Y,Z ==> Vertex 2 {m}
    -234.213481781663,-216.67420640348,0,  !- X,Y,Z ==> Vertex 3 {m}
    -234.213481781663,-216.67420640348,12;  !- X,Y,Z ==> Vertex 4 {m}

  Shading:Building:Detailed,
    Shading Surface 62,      !- Name
    ,                        !- Transmittance Schedule Name
    ,                        !- Number of Vertices
    -231.785104537764,-216.896404140156,12,  !- X,Y,Z ==> Vertex 1 {m}
    -231.785104537764,-216.896404140156,0,  !- X,Y,Z ==> Vertex 2 {m}
    -232.874174621831,-232.000521032124,0,  !- X,Y,Z ==> Vertex 3 {m}
    -232.874174621831,-232.000521032124,12;  !- X,Y,Z ==> Vertex 4 {m}

  Shading:Building:Detailed,
    Shading Surface 63,      !- Name
    ,                        !- Transmittance Schedule Name
    ,                        !- Number of Vertices
    -168.897981538751,-202.238225471148,12,  !- X,Y,Z ==> Vertex 1 {m}
    -168.897981538751,-202.238225471148,0,  !- X,Y,Z ==> Vertex 2 {m}
    -169.14927592745,-205.792137788838,0,  !- X,Y,Z ==> Vertex 3 {m}
    -169.14927592745,-205.792137788838,12;  !- X,Y,Z ==> Vertex 4 {m}

  Shading:Building:Detailed,
    Shading Surface 64,      !- Name
    ,                        !- Transmittance Schedule Name
    ,                        !- Number of Vertices
    -171.24300849428,-218.563981987602,12,  !- X,Y,Z ==> Vertex 1 {m}
    -171.24300849428,-218.563981987602,0,  !- X,Y,Z ==> Vertex 2 {m}
    -174.007225908341,-255.435815350053,0,  !- X,Y,Z ==> Vertex 3 {m}
    -174.007225908341,-255.435815350053,12;  !- X,Y,Z ==> Vertex 4 {m}

  Shading:Building:Detailed,
    Shading Surface 65,      !- Name
    ,                        !- Transmittance Schedule Name
    ,                        !- Number of Vertices
    -193.852151321323,-220.118253233841,12,  !- X,Y,Z ==> Vertex 1 {m}
    -193.852151321323,-220.118253233841,0,  !- X,Y,Z ==> Vertex 2 {m}
    -193.600853234827,-216.897521670725,0,  !- X,Y,Z ==> Vertex 3 {m}
    -193.600853234827,-216.897521670725,12;  !- X,Y,Z ==> Vertex 4 {m}

  Shading:Building:Detailed,
    Shading Surface 66,      !- Name