  ConvergenceLimits,
    0,                       !- Minimum System Timestep {minutes}
    25;                      !- Maximum HVAC Iterations

  Version,23.1;

  Timestep,1;

  LifeCycleCost:Parameters,
    Life Cycle Cost Parameters,  !- Name
    EndOfYear,               !- Discounting Convention
    ConstantDollar,          !- Inflation Approach
    0.03,                    !- Real Discount Rate
    ,                        !- Nominal Discount Rate
    ,                        !- Inflation
    ,                        !- Base Date Month
    2011,                    !- Base Date Year
    ,                        !- Service Date Month
    2011,                    !- Service Date Year
    25,                      !- Length of Study Period in Years
    ,                        !- Tax rate
    None;                    !- Depreciation Method

  LifeCycleCost:UsePriceEscalation,
    U.S. Avg  Commercial-Electricity,  !- LCC Price Escalation Name
    Electricity,             !- Resource
    2011,                    !- Escalation Start Year
    January,                 !- Escalation Start Month
    0.9838,                  !- Year 1 Escalation
    0.9730,                  !- Year 2 Escalation
    0.9632,                  !- Year 3 Escalation
    0.9611,                  !- Year 4 Escalation
    0.9571,                  !- Year 5 Escalation
    0.9553,                  !- Year 6 Escalation
    0.9539,                  !- Year 7 Escalation
    0.9521,                  !- Year 8 Escalation
    0.9546,                  !- Year 9 Escalation
    0.9550,                  !- <none>
    0.9553,                  !- <none>
    0.9564,                  !- <none>
    0.9575,                  !- <none>
    0.9596,                  !- <none>
    0.9618,                  !- <none>
    0.9614,                  !- <none>
    0.9618,                  !- <none>
    0.9618,                  !- <none>
    0.9593,                  !- <none>
    0.9589,                  !- <none>
    0.9607,                  !- <none>
    0.9625,                  !- <none>
    0.9650,                  !- <none>
    0.9708,                  !- <none>
    0.9751,                  !- <none>
    0.9762,                  !- <none>
    0.9766,                  !- <none>
    0.9766,                  !- <none>
    0.9769,                  !- <none>
    0.9773;                  !- <none>

  LifeCycleCost:UsePriceEscalation,
    U.S. Avg  Commercial-Distillate Oil,  !- LCC Price Escalation Name
    FuelOilNo1,              !- Resource
    2011,                    !- Escalation Start Year
    January,                 !- Escalation Start Month
    0.9714,                  !- Year 1 Escalation
    0.9730,                  !- Year 2 Escalation
    0.9942,                  !- Year 3 Escalation
    1.0164,                  !- Year 4 Escalation
    1.0541,                  !- Year 5 Escalation
    1.0928,                  !- Year 6 Escalation
    1.1267,                  !- Year 7 Escalation
    1.1580,                  !- Year 8 Escalation
    1.1792,                  !- Year 9 Escalation
    1.1967,                  !- <none>
    1.2200,                  !- <none>
    1.2333,                  !- <none>
    1.2566,                  !- <none>
    1.2709,                  !- <none>
    1.2826,                  !- <none>
    1.2985,                  !- <none>
    1.3102,                  !- <none>
    1.3250,                  !- <none>
    1.3261,                  !- <none>
    1.3282,                  !- <none>
    1.3324,                  !- <none>
    1.3356,                  !- <none>
    1.3431,                  !- <none>
    1.3510,                  !- <none>
    1.3568,                  !- <none>
    1.3606,                  !- <none>
    1.3637,                  !- <none>
    1.3674,                  !- <none>
    1.3706,                  !- <none>
    1.3743;                  !- <none>

  LifeCycleCost:UsePriceEscalation,
    U.S. Avg  Commercial-Residual Oil,  !- LCC Price Escalation Name
    FuelOilNo2,              !- Resource
    2011,                    !- Escalation Start Year
    January,                 !- Escalation Start Month
    0.8469,                  !- Year 1 Escalation
    0.8257,                  !- Year 2 Escalation
    0.8681,                  !- Year 3 Escalation
    0.8988,                  !- Year 4 Escalation
    0.9289,                  !- Year 5 Escalation
    0.9604,                  !- Year 6 Escalation
    0.9897,                  !- Year 7 Escalation
    1.0075,                  !- Year 8 Escalation
    1.0314,                  !- Year 9 Escalation
    1.0554,                  !- <none>
    1.0861,                  !- <none>
    1.1278,                  !- <none>
    1.1497,                  !- <none>
    1.1620,                  !- <none>
    1.1743,                  !- <none>
    1.1852,                  !- <none>
    1.1948,                  !- <none>
    1.2037,                  !- <none>
    1.2071,                  !- <none>
    1.2119,                  !- <none>
    1.2139,                  !- <none>
    1.2194,                  !- <none>
    1.2276,                  !- <none>
    1.2365,                  !- <none>
    1.2420,                  !- <none>
    1.2461,                  !- <none>
    1.2509,                  !- <none>
    1.2550,                  !- <none>
    1.2591,                  !- <none>
    1.2638;                  !- <none>

  LifeCycleCost:UsePriceEscalation,
    U.S. Avg  Commercial-Natural gas,  !- LCC Price Escalation Name
    NaturalGas,              !- Resource
    2011,                    !- Escalation Start Year
    January,                 !- Escalation Start Month
    0.9823,                  !- Year 1 Escalation
    0.9557,                  !- Year 2 Escalation
    0.9279,                  !- Year 3 Escalation
    0.9257,                  !- Year 4 Escalation
    0.9346,                  !- Year 5 Escalation
    0.9412,                  !- Year 6 Escalation
    0.9512,                  !- Year 7 Escalation
    0.9645,                  !- Year 8 Escalation
    0.9856,                  !- Year 9 Escalation
    1.0067,                  !- <none>
    1.0222,                  !- <none>
    1.0410,                  !- <none>
    1.0610,                  !- <none>
    1.0787,                  !- <none>
    1.0942,                  !- <none>
    1.1098,                  !- <none>
    1.1220,                  !- <none>
    1.1308,                  !- <none>
    1.1386,                  !- <none>
    1.1486,                  !- <none>
    1.1619,                  !- <none>
    1.1763,                  !- <none>
    1.1918,                  !- <none>
    1.2118,                  !- <none>
    1.2284,                  !- <none>
    1.2439,                  !- <none>
    1.2605,                  !- <none>
    1.2772,                  !- <none>
    1.2938,                  !- <none>
    1.3115;                  !- <none>

  LifeCycleCost:UsePriceEscalation,
    U.S. Avg  Commercial-Coal,  !- LCC Price Escalation Name
    Coal,                    !- Resource
    2011,                    !- Escalation Start Year
    January,                 !- Escalation Start Month
    0.9970,                  !- Year 1 Escalation
    1.0089,                  !- Year 2 Escalation
    1.0089,                  !- Year 3 Escalation
    0.9941,                  !- Year 4 Escalation
    0.9941,                  !- Year 5 Escalation
    1.0000,                  !- Year 6 Escalation
    1.0030,                  !- Year 7 Escalation
    1.0059,                  !- Year 8 Escalation
    1.0089,                  !- Year 9 Escalation
    1.0119,                  !- <none>
    1.0148,                  !- <none>
    1.0178,                  !- <none>
    1.0208,                  !- <none>
    1.0267,                  !- <none>
    1.0297,                  !- <none>
    1.0356,                  !- <none>
    1.0415,                  !- <none>
    1.0534,                  !- <none>
    1.0564,                  !- <none>
    1.0593,                  !- <none>
    1.0653,                  !- <none>
    1.0712,                  !- <none>
    1.0742,                  !- <none>
    1.0801,                  !- <none>
    1.0831,                  !- <none>
    1.0831,                  !- <none>
    1.0861,                  !- <none>
    1.0890,                  !- <none>
    1.0920,                  !- <none>
    1.0950;                  !- <none>

  Building,
    bld_38,                  !- Name
    ,                        !- North Axis {deg}
    City,                    !- Terrain
    ,                        !- Loads Convergence Tolerance Value {W}
    ,                        !- Temperature Convergence Tolerance Value {deltaC}
    ,                        !- Solar Distribution
    ,                        !- Maximum Number of Warmup Days
    ;                        !- Minimum Number of Warmup Days

  Shading:Building:Detailed,
    Shading Surface 1,       !- Name
    ,                        !- Transmittance Schedule Name
    ,                        !- Number of Vertices
    228.423247408398,73.8584917254732,12,  !- X,Y,Z ==> Vertex 1 {m}
    227.837705849437,55.0893321054341,12,  !- X,Y,Z ==> Vertex 2 {m}
    236.462220127329,54.8674876160466,12,  !- X,Y,Z ==> Vertex 3 {m}
    237.047739429445,73.6366479246612,12;  !- X,Y,Z ==> Vertex 4 {m}

  Shading:Building:Detailed,
    Shading Surface 2,       !- Name
    ,                        !- Transmittance Schedule Name
    ,                        !- Number of Vertices
    228.423247408398,73.8584917254732,12,  !- X,Y,Z ==> Vertex 1 {m}
    228.423247408398,73.8584917254732,0,  !- X,Y,Z ==> Vertex 2 {m}
    227.837705849437,55.0893321054341,0,  !- X,Y,Z ==> Vertex 3 {m}
    227.837705849437,55.0893321054341,12;  !- X,Y,Z ==> Vertex 4 {m}

  Shading:Building:Detailed,
    Shading Surface 3,       !- Name
    ,                        !- Transmittance Schedule Name
    ,                        !- Number of Vertices
    227.837705849437,55.0893321054341,12,  !- X,Y,Z ==> Vertex 1 {m}
    227.837705849437,55.0893321054341,0,  !- X,Y,Z ==> Vertex 2 {m}
    236.462220127329,54.8674876160466,0,  !- X,Y,Z ==> Vertex 3 {m}
    236.462220127329,54.8674876160466,12;  !- X,Y,Z ==> Vertex 4 {m}

  Shading:Building:Detailed,
    Shading Surface 4,       !- Name
    ,                        !- Transmittance Schedule Name
    ,                        !- Number of Vertices
    237.047739429445,73.6366479246612,0,  !- X,Y,Z ==> Vertex 1 {m}
    236.462220127329,54.8674876160466,0,  !- X,Y,Z ==> Vertex 2 {m}
    227.837705849437,55.0893321054341,0,  !- X,Y,Z ==> Vertex 3 {m}
    228.423247408398,73.8584917254732,0;  !- X,Y,Z ==> Vertex 4 {m}

  Shading:Building:Detailed,
    Shading Surface 5,       !- Name
    ,                        !- Transmittance Schedule Name
    ,                        !- Number of Vertices
    237.047739429445,73.6366479246612,12,  !- X,Y,Z ==> Vertex 1 {m}
    237.047739429445,73.6366479246612,0,  !- X,Y,Z ==> Vertex 2 {m}
    228.423247408398,73.8584917254732,0,  !- X,Y,Z ==> Vertex 3 {m}
    228.423247408398,73.8584917254732,12;  !- X,Y,Z ==> Vertex 4 {m}

  Shading:Building:Detailed,
    Shading Surface 6,       !- Name
    ,                        !- Transmittance Schedule Name
    ,                        !- Number of Vertices
    236.462220127329,54.8674876160466,12,  !- X,Y,Z ==> Vertex 1 {m}
    236.462220127329,54.8674876160466,0,  !- X,Y,Z ==> Vertex 2 {m}
    237.047739429445,73.6366479246612,0,  !- X,Y,Z ==> Vertex 3 {m}
    237.047739429445,73.6366479246612,12;  !- X,Y,Z ==> Vertex 4 {m}

  Shading:Building:Detailed,
    Shading Surface 74,      !- Name
    ,                        !- Transmittance Schedule Name
    ,                        !- Number of Vertices
    89.5978072813368,-221.786221110591,12,  !- X,Y,Z ==> Vertex 1 {m}
    89.5978072813368,-221.786221110591,0,  !- X,Y,Z ==> Vertex 2 {m}
    91.6070479441801,-187.690788248168,0,  !- X,Y,Z ==> Vertex 3 {m}
    91.6070479441801,-187.690788248168,12;  !- X,Y,Z ==> Vertex 4 {m}

  Shading:Building:Detailed,
    Shading Surface 75,      !- Name
    ,                        !- Transmittance Schedule Name
    ,                        !- Number of Vertices
    30.7310193958876,-176.585304230161,12,  !- X,Y,Z ==> Vertex 1 {m}
    30.7310193958876,-176.585304230161,0,  !- X,Y,Z ==> Vertex 2 {m}
    30.3960987020501,-181.916183947757,0,  !- X,Y,Z ==> Vertex 3 {m}
    30.3960987020501,-181.916183947757,12;  !- X,Y,Z ==> Vertex 4 {m}

  Shading:Building:Detailed,
    Shading Surface 76,      !- Name
    ,                        !- Transmittance Schedule Name
    ,                        !- Number of Vertices
    82.6473029370403,-187.135595851711,12,  !- X,Y,Z ==> Vertex 1 {m}
    82.6473029370403,-187.135595851711,0,  !- X,Y,Z ==> Vertex 2 {m}
    83.0658959627764,-179.583513524321,0,  !- X,Y,Z ==> Vertex 3 {m}
    83.0658959627764,-179.583513524321,12;  !- X,Y,Z ==> Vertex 4 {m}

  Shading:Building:Detailed,
    Shading Surface 77,      !- Name
    ,                        !- Transmittance Schedule Name
    ,                        !- Number of Vertices
    83.0658959627764,-179.583513524321,0,  !- X,Y,Z ==> Vertex 1 {m}
    82.6473029370403,-187.135595851711,0,  !- X,Y,Z ==> Vertex 2 {m}
    91.6070479441801,-187.690788248168,0,  !- X,Y,Z ==> Vertex 3 {m}
    89.5978072813368,-221.786221110591,0,  !- X,Y,Z ==> Vertex 4 {m}
    20.431638271354,-217.788586245994,0,  !- X,Y,Z ==> Vertex 5 {m}
    22.5249312705509,-181.471972749721,0,  !- X,Y,Z ==> Vertex 6 {m}
    30.3960987020501,-181.916183947757,0,  !- X,Y,Z ==> Vertex 7 {m}
    30.7310193958876,-176.585304230161,0;  !- X,Y,Z ==> Vertex 8 {m}

  Shading:Building:Detailed,
    Shading Surface 78,      !- Name
    ,                        !- Transmittance Schedule Name
    ,                        !- Number of Vertices
    30.3960987020501,-181.916183947757,12,  !- X,Y,Z ==> Vertex 1 {m}
    30.3960987020501,-181.916183947757,0,  !- X,Y,Z ==> Vertex 2 {m}
    22.5249312705509,-181.471972749721,0,  !- X,Y,Z ==> Vertex 3 {m}
    22.5249312705509,-181.471972749721,12;  !- X,Y,Z ==> Vertex 4 {m}

  Shading:Building:Detailed,
    Shading Surface 79,      !- Name
    ,                        !- Transmittance Schedule Name
    ,                        !- Number of Vertices
    83.0658959627764,-179.583513524321,12,  !- X,Y,Z ==> Vertex 1 {m}
    83.0658959627764,-179.583513524321,0,  !- X,Y,Z ==> Vertex 2 {m}
    30.7310193958876,-176.585304230161,0,  !- X,Y,Z ==> Vertex 3 {m}
    30.7310193958876,-176.585304230161,12;  !- X,Y,Z ==> Vertex 4 {m}

  Shading:Building:Detailed,
    Shading Surface 80,      !- Name
    ,                        !- Transmittance Schedule Name
    ,                        !- Number of Vertices
    91.6070479441801,-187.690788248168,12,  !- X,Y,Z ==> Vertex 1 {m}
    91.6070479441801,-187.690788248168,0,  !- X,Y,Z ==> Vertex 2 {m}
    82.6473029370403,-187.135595851711,0,  !- X,Y,Z ==> Vertex 3 {m}
    82.6473029370403,-187.135595851711,12;  !- X,Y,Z ==> Vertex 4 {m}

  Shading:Building:Detailed,
    Shading Surface 81,      !- Name
    ,                        !- Transmittance Schedule Name
    ,                        !- Number of Vertices
    30.7310193958876,-176.585304230161,12,  !- X,Y,Z ==> Vertex 1 {m}
    30.3960987020501,-181.916183947757,12,  !- X,Y,Z ==> Vertex 2 {m}
    22.5249312705509,-181.471972749721,12,  !- X,Y,Z ==> Vertex 3 {m}
    20.431638271354,-217.788586245994,12,  !- X,Y,Z ==> Vertex 4 {m}
    89.5978072813368,-221.786221110591,12,  !- X,Y,Z ==> Vertex 5 {m}
    91.6070479441801,-187.690788248168,12,  !- X,Y,Z ==> Vertex 6 {m}
    82.6473029370403,-187.135595851711,12,  !- X,Y,Z ==> Vertex 7 {m}
    83.0658959627764,-179.583513524321,12;  !- X,Y,Z ==> Vertex 8 {m}

  Shading:Building:Detailed,
    Shading Surface 82,      !- Name
    ,                        !- Transmittance Schedule Name
    ,                        !- Number of Vertices
    22.5249312705509,-181.471972749721,12,  !- X,Y,Z ==> Vertex 1 {m}
    22.5249312705509,-181.471972749721,0,  !- X,Y,Z ==> Vertex 2 {m}
    20.431638271354,-217.788586245994,0,  !- X,Y,Z ==> Vertex 3 {m}
    20.431638271354,-217.788586245994,12;  !- X,Y,Z ==> Vertex 4 {m}

  Shading:Building:Detailed,
    Shading Surface 83,      !- Name
    ,                        !- Transmittance Schedule Name
    ,                        !- Number of Vertices
    20.431638271354,-217.788586245994,12,  !- X,Y,Z ==> Vertex 1 {m}
    20.431638271354,-217.788586245994,0,  !- X,Y,Z ==> Vertex 2 {m}
    89.5978072813368,-221.786221110591,0,  !- X,Y,Z ==> Vertex 3 {m}
    89.5978072813368,-221.786221110591,12;  !- X,Y,Z ==> Vertex 4 {m}

  Shading:Building:Detailed,
    Shading Surface 100,     !- Name
    ,                        !- Transmittance Schedule Name
    ,                        !- Number of Vertices
    4.35418960809595,-60.9719336023201,12,  !- X,Y,Z ==> Vertex 1 {m}
    4.35418960809595,-60.9719336023201,0,  !- X,Y,Z ==> Vertex 2 {m}
    6.86622133918886,-60.1945117641496,0,  !- X,Y,Z ==> Vertex 3 {m}
    6.86622133918886,-60.1945117641496,12;  !- X,Y,Z ==> Vertex 4 {m}

  Shading:Building:Detailed,
    Shading Surface 101,     !- Name
    ,                        !- Transmittance Schedule Name
    ,                        !- Number of Vertices
    -10.7180322157999,-79.2968243311655,12,  !- X,Y,Z ==> Vertex 1 {m}
    -10.7180322157999,-79.2968243311655,0,  !- X,Y,Z ==> Vertex 2 {m}
    -8.03852440719046,-79.5189477524481,0,  !- X,Y,Z ==> Vertex 3 {m}
    -8.03852440719046,-79.5189477524481,12;  !- X,Y,Z ==> Vertex 4 {m}

  Shading:Building:Detailed,
    Shading Surface 102,     !- Name
    ,                        !- Transmittance Schedule Name
    ,                        !- Number of Vertices
    -0.502406830508857,-65.8585742289418,12,  !- X,Y,Z ==> Vertex 1 {m}
    -0.502406830508857,-65.8585742289418,0,  !- X,Y,Z ==> Vertex 2 {m}
    4.10298830480556,-64.4147932873766,0,  !- X,Y,Z ==> Vertex 3 {m}
    4.10298830480556,-64.4147932873766,12;  !- X,Y,Z ==> Vertex 4 {m}

  Shading:Building:Detailed,
    Shading Surface 103,     !- Name
    ,                        !- Transmittance Schedule Name
    ,                        !- Number of Vertices
    -11.4716601609671,-89.6254014413115,12,  !- X,Y,Z ==> Vertex 1 {m}
    -11.4716601609671,-89.6254014413115,0,  !- X,Y,Z ==> Vertex 2 {m}
    -10.7180322157999,-79.2968243311655,0,  !- X,Y,Z ==> Vertex 3 {m}
    -10.7180322157999,-79.2968243311655,12;  !- X,Y,Z ==> Vertex 4 {m}

  Shading:Building:Detailed,
    Shading Surface 104,     !- Name
    ,                        !- Transmittance Schedule Name
    ,                        !- Number of Vertices
    5.86139493413456,-43.4244546070571,12,  !- X,Y,Z ==> Vertex 1 {m}
    5.86139493413456,-43.4244546070571,0,  !- X,Y,Z ==> Vertex 2 {m}
    -28.3021541628111,-40.870022117557,0,  !- X,Y,Z ==> Vertex 3 {m}
    -28.3021541628111,-40.870022117557,12;  !- X,Y,Z ==> Vertex 4 {m}

  Shading:Building:Detailed,
    Shading Surface 105,     !- Name
    ,                        !- Transmittance Schedule Name
    ,                        !- Number of Vertices
    7.70355363191741,-49.0885122741283,12,  !- X,Y,Z ==> Vertex 1 {m}
    7.70355363191741,-49.0885122741283,0,  !- X,Y,Z ==> Vertex 2 {m}
    5.86139493413456,-43.4244546070571,0,  !- X,Y,Z ==> Vertex 3 {m}
    5.86139493413456,-43.4244546070571,12;  !- X,Y,Z ==> Vertex 4 {m}

  Shading:Building:Detailed,
    Shading Surface 106,     !- Name
    ,                        !- Transmittance Schedule Name
    ,                        !- Number of Vertices
    6.86622133918886,-60.1945117641496,12,  !- X,Y,Z ==> Vertex 1 {m}
    6.86622133918886,-60.1945117641496,0,  !- X,Y,Z ==> Vertex 2 {m}
    7.70355363191741,-49.0885122741283,0,  !- X,Y,Z ==> Vertex 3 {m}
    7.70355363191741,-49.0885122741283,12;  !- X,Y,Z ==> Vertex 4 {m}

  Shading:Building:Detailed,
    Shading Surface 84,      !- Name
    ,                        !- Transmittance Schedule Name
    ,                        !- Number of Vertices
    4.10298830480556,-64.4147932873766,12,  !- X,Y,Z ==> Vertex 1 {m}
    4.10298830480556,-64.4147932873766,0,  !- X,Y,Z ==> Vertex 2 {m}
    4.35418960809595,-60.9719336023201,0,  !- X,Y,Z ==> Vertex 3 {m}
    4.35418960809595,-60.9719336023201,12;  !- X,Y,Z ==> Vertex 4 {m}

  Shading:Building:Detailed,
    Shading Surface 85,      !- Name
    ,                        !- Transmittance Schedule Name
    ,                        !- Number of Vertices
    -31.232956566572,-65.5253271736,12,  !- X,Y,Z ==> Vertex 1 {m}
    -31.232956566572,-65.5253271736,0,  !- X,Y,Z ==> Vertex 2 {m}
    -35.9223903597003,-126.941474032802,0,  !- X,Y,Z ==> Vertex 3 {m}
    -35.9223903597003,-126.941474032802,12;  !- X,Y,Z ==> Vertex 4 {m}

  Shading:Building:Detailed,
    Shading Surface 86,      !- Name
    ,                        !- Transmittance Schedule Name
    ,                        !- Number of Vertices
    -8.03852440719046,-79.5189477524481,12,  !- X,Y,Z ==> Vertex 1 {m}
    -8.03852440719046,-79.5189477524481,0,  !- X,Y,Z ==> Vertex 2 {m}
    -7.45237414447839,-71.8558095636808,0,  !- X,Y,Z ==> Vertex 3 {m}
    -7.45237414447839,-71.8558095636808,12;  !- X,Y,Z ==> Vertex 4 {m}

  Shading:Building:Detailed,
    Shading Surface 87,      !- Name
    ,                        !- Transmittance Schedule Name
    ,                        !- Number of Vertices
    -7.45237414447839,-71.8558095636808,12,  !- X,Y,Z ==> Vertex 1 {m}
    -7.45237414447839,-71.8558095636808,0,  !- X,Y,Z ==> Vertex 2 {m}
    -0.837345166430259,-69.7456736450503,0,  !- X,Y,Z ==> Vertex 3 {m}
    -0.837345166430259,-69.7456736450503,12;  !- X,Y,Z ==> Vertex 4 {m}

  Shading:Building:Detailed,
    Shading Surface 88,      !- Name
    ,                        !- Transmittance Schedule Name
    ,                        !- Number of Vertices
    -14.3187183217338,-128.607448317255,12,  !- X,Y,Z ==> Vertex 1 {m}
    -14.3187183217338,-128.607448317255,0,  !- X,Y,Z ==> Vertex 2 {m}
    -14.1512423086444,-125.719889326061,0,  !- X,Y,Z ==> Vertex 3 {m}
    -14.1512423086444,-125.719889326061,12;  !- X,Y,Z ==> Vertex 4 {m}

  Shading:Building:Detailed,
    Shading Surface 89,      !- Name
    ,                        !- Transmittance Schedule Name
    ,                        !- Number of Vertices
    -32.2377563875231,-62.4156432092239,12,  !- X,Y,Z ==> Vertex 1 {m}
    -32.2377563875231,-62.4156432092239,0,  !- X,Y,Z ==> Vertex 2 {m}
    -31.232956566572,-65.5253271736,0,  !- X,Y,Z ==> Vertex 3 {m}
    -31.232956566572,-65.5253271736,12;  !- X,Y,Z ==> Vertex 4 {m}

  Shading:Building:Detailed,
    Shading Surface 90,      !- Name
    ,                        !- Transmittance Schedule Name
    ,                        !- Number of Vertices
    3.43314220226756,-126.941562007859,12,  !- X,Y,Z ==> Vertex 1 {m}
    3.43314220226756,-126.941562007859,0,  !- X,Y,Z ==> Vertex 2 {m}
    4.10301859060149,-118.056763686436,0,  !- X,Y,Z ==> Vertex 3 {m}
    4.10301859060149,-118.056763686436,12;  !- X,Y,Z ==> Vertex 4 {m}

  Shading:Building:Detailed,
    Shading Surface 91,      !- Name
    ,                        !- Transmittance Schedule Name
    ,                        !- Number of Vertices
    -28.3021541628111,-40.870022117557,12,  !- X,Y,Z ==> Vertex 1 {m}
    -29.8094546656315,-61.6382336801041,12,  !- X,Y,Z ==> Vertex 2 {m}
    -32.2377563875231,-62.4156432092239,12,  !- X,Y,Z ==> Vertex 3 {m}
    -31.232956566572,-65.5253271736,12,  !- X,Y,Z ==> Vertex 4 {m}
    -35.9223903597003,-126.941474032802,12,  !- X,Y,Z ==> Vertex 5 {m}
    -14.3187183217338,-128.607448317255,12,  !- X,Y,Z ==> Vertex 6 {m}
    -14.1512423086444,-125.719889326061,12,  !- X,Y,Z ==> Vertex 7 {m}
    3.43314220226756,-126.941562007859,12,  !- X,Y,Z ==> Vertex 8 {m}
    4.10301859060149,-118.056763686436,12,  !- X,Y,Z ==> Vertex 9 {m}
    -4.85661562197895,-90.1807087752135,12,  !- X,Y,Z ==> Vertex 10 {m}
    -11.4716601609671,-89.6254014413115,12,  !- X,Y,Z ==> Vertex 11 {m}
    -10.7180322157999,-79.2968243311655,12,  !- X,Y,Z ==> Vertex 12 {m}
    -8.03852440719046,-79.5189477524481,12,  !- X,Y,Z ==> Vertex 13 {m}
    -7.45237414447839,-71.8558095636808,12,  !- X,Y,Z ==> Vertex 14 {m}
    -0.837345166430259,-69.7456736450503,12,  !- X,Y,Z ==> Vertex 15 {m}
    -0.502406830508857,-65.8585742289418,12,  !- X,Y,Z ==> Vertex 16 {m}
    4.10298830480556,-64.4147932873766,12,  !- X,Y,Z ==> Vertex 17 {m}
    4.35418960809595,-60.9719336023201,12,  !- X,Y,Z ==> Vertex 18 {m}
    6.86622133918886,-60.1945117641496,12,  !- X,Y,Z ==> Vertex 19 {m}
    7.70355363191741,-49.0885122741283,12,  !- X,Y,Z ==> Vertex 20 {m}
    5.86139493413456,-43.4244546070571,12;  !- X,Y,Z ==> Vertex 21 {m}

  Shading:Building:Detailed,
    Shading Surface 92,      !- Name
    ,                        !- Transmittance Schedule Name
    ,                        !- Number of Vertices
    -14.1512423086444,-125.719889326061,12,  !- X,Y,Z ==> Vertex 1 {m}
    -14.1512423086444,-125.719889326061,0,  !- X,Y,Z ==> Vertex 2 {m}
    3.43314220226756,-126.941562007859,0,  !- X,Y,Z ==> Vertex 3 {m}
    3.43314220226756,-126.941562007859,12;  !- X,Y,Z ==> Vertex 4 {m}

  Shading:Building:Detailed,
    Shading Surface 93,      !- Name
    ,                        !- Transmittance Schedule Name
    ,                        !- Number of Vertices
    4.10301859060149,-118.056763686436,12,  !- X,Y,Z ==> Vertex 1 {m}
    4.10301859060149,-118.056763686436,0,  !- X,Y,Z ==> Vertex 2 {m}
    -4.85661562197895,-90.1807087752135,0,  !- X,Y,Z ==> Vertex 3 {m}
    -4.85661562197895,-90.1807087752135,12;  !- X,Y,Z ==> Vertex 4 {m}

  Shading:Building:Detailed,
    Shading Surface 94,      !- Name
    ,                        !- Transmittance Schedule Name
    ,                        !- Number of Vertices
    -35.9223903597003,-126.941474032802,12,  !- X,Y,Z ==> Vertex 1 {m}
    -35.9223903597003,-126.941474032802,0,  !- X,Y,Z ==> Vertex 2 {m}
    -14.3187183217338,-128.607448317255,0,  !- X,Y,Z ==> Vertex 3 {m}
    -14.3187183217338,-128.607448317255,12;  !- X,Y,Z ==> Vertex 4 {m}

  Shading:Building:Detailed,
    Shading Surface 95,      !- Name
    ,                        !- Transmittance Schedule Name
    ,                        !- Number of Vertices
    5.86139493413456,-43.4244546070571,0,  !- X,Y,Z ==> Vertex 1 {m}
    7.70355363191741,-49.0885122741283,0,  !- X,Y,Z ==> Vertex 2 {m}
    6.86622133918886,-60.1945117641496,0,  !- X,Y,Z ==> Vertex 3 {m}
    4.35418960809595,-60.9719336023201,0,  !- X,Y,Z ==> Vertex 4 {m}
    4.10298830480556,-64.4147932873766,0,  !- X,Y,Z ==> Vertex 5 {m}
    -0.502406830508857,-65.8585742289418,0,  !- X,Y,Z ==> Vertex 6 {m}
    -0.837345166430259,-69.7456736450503,0,  !- X,Y,Z ==> Vertex 7 {m}
    -7.45237414447839,-71.8558095636808,0,  !- X,Y,Z ==> Vertex 8 {m}
    -8.03852440719046,-79.5189477524481,0,  !- X,Y,Z ==> Vertex 9 {m}
    -10.7180322157999,-79.2968243311655,0,  !- X,Y,Z ==> Vertex 10 {m}
    -11.4716601609671,-89.6254014413115,0,  !- X,Y,Z ==> Vertex 11 {m}
    -4.85661562197895,-90.1807087752135,0,  !- X,Y,Z ==> Vertex 12 {m}
    4.10301859060149,-118.056763686436,0,  !- X,Y,Z ==> Vertex 13 {m}
    3.43314220226756,-126.941562007859,0,  !- X,Y,Z ==> Vertex 14 {m}
    -14.1512423086444,-125.719889326061,0,  !- X,Y,Z ==> Vertex 15 {m}
    -14.3187183217338,-128.607448317255,0,  !- X,Y,Z ==> Vertex 16 {m}
    -35.9223903597003,-126.941474032802,0,  !- X,Y,Z ==> Vertex 17 {m}
    -31.232956566572,-65.5253271736,0,  !- X,Y,Z ==> Vertex 18 {m}
    -32.2377563875231,-62.4156432092239,0,  !- X,Y,Z ==> Vertex 19 {m}
    -29.8094546656315,-61.6382336801041,0,  !- X,Y,Z ==> Vertex 20 {m}
    -28.3021541628111,-40.870022117557,0;  !- X,Y,Z ==> Vertex 21 {m}

  Shading:Building:Detailed,
    Shading Surface 96,      !- Name
    ,                        !- Transmittance Schedule Name
    ,                        !- Number of Vertices
    -29.8094546656315,-61.6382336801041,12,  !- X,Y,Z ==> Vertex 1 {m}
    -29.8094546656315,-61.6382336801041,0,  !- X,Y,Z ==> Vertex 2 {m}
    -32.2377563875231,-62.4156432092239,0,  !- X,Y,Z ==> Vertex 3 {m}
    -32.2377563875231,-62.4156432092239,12;  !- X,Y,Z ==> Vertex 4 {m}

  Shading:Building:Detailed,
    Shading Surface 97,      !- Name
    ,                        !- Transmittance Schedule Name
    ,                        !- Number of Vertices
    -4.85661562197895,-90.1807087752135,12,  !- X,Y,Z ==> Vertex 1 {m}
    -4.85661562197895,-90.1807087752135,0,  !- X,Y,Z ==> Vertex 2 {m}
    -11.4716601609671,-89.6254014413115,0,  !- X,Y,Z ==> Vertex 3 {m}
    -11.4716601609671,-89.6254014413115,12;  !- X,Y,Z ==> Vertex 4 {m}

  Shading:Building:Detailed,
    Shading Surface 98,      !- Name
    ,                        !- Transmittance Schedule Name
    ,                        !- Number of Vertices
    -0.837345166430259,-69.7456736450503,12,  !- X,Y,Z ==> Vertex 1 {m}
    -0.837345166430259,-69.7456736450503,0,  !- X,Y,Z ==> Vertex 2 {m}
    -0.502406830508857,-65.8585742289418,0,  !- X,Y,Z ==> Vertex 3 {m}
    -0.502406830508857,-65.8585742289418,12;  !- X,Y,Z ==> Vertex 4 {m}

  Shading:Building:Detailed,
    Shading Surface 99,      !- Name
    ,                        !- Transmittance Schedule Name
    ,                        !- Number of Vertices
    -28.3021541628111,-40.870022117557,12,  !- X,Y,Z ==> Vertex 1 {m}
    -28.3021541628111,-40.870022117557,0,  !- X,Y,Z ==> Vertex 2 {m}
    -29.8094546656315,-61.6382336801041,0,  !- X,Y,Z ==> Vertex 3 {m}
    -29.8094546656315,-61.6382336801041,12;  !- X,Y,Z ==> Vertex 4 {m}

  Shading:Building:Detailed,
    Shading Surface 107,     !- Name
    ,                        !- Transmittance Schedule Name
    ,                        !- Number of Vertices
    -20.6821281731813,34.7618091401241,0,  !- X,Y,Z ==> Vertex 1 {m}