  ConvergenceLimits,
    0,                       !- Minimum System Timestep {minutes}
    25;                      !- Maximum HVAC Iterations

  Version,23.1;

  Timestep,1;

  LifeCycleCost:Parameters,
    Life Cycle Cost Parameters,  !- Name
    EndOfYear,               !- Discounting Convention
    ConstantDollar,          !- Inflation Approach
    0.03,                    !- Real Discount Rate
    ,                        !- Nominal Discount Rate
    ,                        !- Inflation
    ,                        !- Base Date Month
    2011,                    !- Base Date Year
    ,                        !- Service Date Month
    2011,                    !- Service Date Year
    25,                      !- Length of Study Period in Years
    ,                        !- Tax rate
    None;                    !- Depreciation Method

  LifeCycleCost:UsePriceEscalation,
    U.S. Avg  Commercial-Electricity,  !- LCC Price Escalation Name
    Electricity,             !- Resource
    2011,                    !- Escalation Start Year
    January,                 !- Escalation Start Month
    0.9838,                  !- Year 1 Escalation
    0.9730,                  !- Year 2 Escalation
    0.9632,                  !- Year 3 Escalation
    0.9611,                  !- Year 4 Escalation
    0.9571,                  !- Year 5 Escalation
    0.9553,                  !- Year 6 Escalation
    0.9539,                  !- Year 7 Escalation
    0.9521,                  !- Year 8 Escalation
    0.9546,                  !- Year 9 Escalation
    0.9550,                  !- <none>
    0.9553,                  !- <none>
    0.9564,                  !- <none>
    0.9575,                  !- <none>
    0.9596,                  !- <none>
    0.9618,                  !- <none>
    0.9614,                  !- <none>
    0.9618,                  !- <none>
    0.9618,                  !- <none>
    0.9593,                  !- <none>
    0.9589,                  !- <none>
    0.9607,                  !- <none>
    0.9625,                  !- <none>
    0.9650,                  !- <none>
    0.9708,                  !- <none>
    0.9751,                  !- <none>
    0.9762,                  !- <none>
    0.9766,                  !- <none>
    0.9766,                  !- <none>
    0.9769,                  !- <none>
    0.9773;                  !- <none>

  LifeCycleCost:UsePriceEscalation,
    U.S. Avg  Commercial-Distillate Oil,  !- LCC Price Escalation Name
    FuelOilNo1,              !- Resource
    2011,                    !- Escalation Start Year
    January,                 !- Escalation Start Month
    0.9714,                  !- Year 1 Escalation
    0.9730,                  !- Year 2 Escalation
    0.9942,                  !- Year 3 Escalation
    1.0164,                  !- Year 4 Escalation
    1.0541,                  !- Year 5 Escalation
    1.0928,                  !- Year 6 Escalation
    1.1267,                  !- Year 7 Escalation
    1.1580,                  !- Year 8 Escalation
    1.1792,                  !- Year 9 Escalation
    1.1967,                  !- <none>
    1.2200,                  !- <none>
    1.2333,                  !- <none>
    1.2566,                  !- <none>
    1.2709,                  !- <none>
    1.2826,                  !- <none>
    1.2985,                  !- <none>
    1.3102,                  !- <none>
    1.3250,                  !- <none>
    1.3261,                  !- <none>
    1.3282,                  !- <none>
    1.3324,                  !- <none>
    1.3356,                  !- <none>
    1.3431,                  !- <none>
    1.3510,                  !- <none>
    1.3568,                  !- <none>
    1.3606,                  !- <none>
    1.3637,                  !- <none>
    1.3674,                  !- <none>
    1.3706,                  !- <none>
    1.3743;                  !- <none>

  LifeCycleCost:UsePriceEscalation,
    U.S. Avg  Commercial-Residual Oil,  !- LCC Price Escalation Name
    FuelOilNo2,              !- Resource
    2011,                    !- Escalation Start Year
    January,                 !- Escalation Start Month
    0.8469,                  !- Year 1 Escalation
    0.8257,                  !- Year 2 Escalation
    0.8681,                  !- Year 3 Escalation
    0.8988,                  !- Year 4 Escalation
    0.9289,                  !- Year 5 Escalation
    0.9604,                  !- Year 6 Escalation
    0.9897,                  !- Year 7 Escalation
    1.0075,                  !- Year 8 Escalation
    1.0314,                  !- Year 9 Escalation
    1.0554,                  !- <none>
    1.0861,                  !- <none>
    1.1278,                  !- <none>
    1.1497,                  !- <none>
    1.1620,                  !- <none>
    1.1743,                  !- <none>
    1.1852,                  !- <none>
    1.1948,                  !- <none>
    1.2037,                  !- <none>
    1.2071,                  !- <none>
    1.2119,                  !- <none>
    1.2139,                  !- <none>
    1.2194,                  !- <none>
    1.2276,                  !- <none>
    1.2365,                  !- <none>
    1.2420,                  !- <none>
    1.2461,                  !- <none>
    1.2509,                  !- <none>
    1.2550,                  !- <none>
    1.2591,                  !- <none>
    1.2638;                  !- <none>

  LifeCycleCost:UsePriceEscalation,
    U.S. Avg  Commercial-Natural gas,  !- LCC Price Escalation Name
    NaturalGas,              !- Resource
    2011,                    !- Escalation Start Year
    January,                 !- Escalation Start Month
    0.9823,                  !- Year 1 Escalation
    0.9557,                  !- Year 2 Escalation
    0.9279,                  !- Year 3 Escalation
    0.9257,                  !- Year 4 Escalation
    0.9346,                  !- Year 5 Escalation
    0.9412,                  !- Year 6 Escalation
    0.9512,                  !- Year 7 Escalation
    0.9645,                  !- Year 8 Escalation
    0.9856,                  !- Year 9 Escalation
    1.0067,                  !- <none>
    1.0222,                  !- <none>
    1.0410,                  !- <none>
    1.0610,                  !- <none>
    1.0787,                  !- <none>
    1.0942,                  !- <none>
    1.1098,                  !- <none>
    1.1220,                  !- <none>
    1.1308,                  !- <none>
    1.1386,                  !- <none>
    1.1486,                  !- <none>
    1.1619,                  !- <none>
    1.1763,                  !- <none>
    1.1918,                  !- <none>
    1.2118,                  !- <none>
    1.2284,                  !- <none>
    1.2439,                  !- <none>
    1.2605,                  !- <none>
    1.2772,                  !- <none>
    1.2938,                  !- <none>
    1.3115;                  !- <none>

  LifeCycleCost:UsePriceEscalation,
    U.S. Avg  Commercial-Coal,  !- LCC Price Escalation Name
    Coal,                    !- Resource
    2011,                    !- Escalation Start Year
    January,                 !- Escalation Start Month
    0.9970,                  !- Year 1 Escalation
    1.0089,                  !- Year 2 Escalation
    1.0089,                  !- Year 3 Escalation
    0.9941,                  !- Year 4 Escalation
    0.9941,                  !- Year 5 Escalation
    1.0000,                  !- Year 6 Escalation
    1.0030,                  !- Year 7 Escalation
    1.0059,                  !- Year 8 Escalation
    1.0089,                  !- Year 9 Escalation
    1.0119,                  !- <none>
    1.0148,                  !- <none>
    1.0178,                  !- <none>
    1.0208,                  !- <none>
    1.0267,                  !- <none>
    1.0297,                  !- <none>
    1.0356,                  !- <none>
    1.0415,                  !- <none>
    1.0534,                  !- <none>
    1.0564,                  !- <none>
    1.0593,                  !- <none>
    1.0653,                  !- <none>
    1.0712,                  !- <none>
    1.0742,                  !- <none>
    1.0801,                  !- <none>
    1.0831,                  !- <none>
    1.0831,                  !- <none>
    1.0861,                  !- <none>
    1.0890,                  !- <none>
    1.0920,                  !- <none>
    1.0950;                  !- <none>

  Building,
    bld_25,                  !- Name
    ,                        !- North Axis {deg}
    City,                    !- Terrain
    ,                        !- Loads Convergence Tolerance Value {W}
    ,                        !- Temperature Convergence Tolerance Value {deltaC}
    ,                        !- Solar Distribution
    ,                        !- Maximum Number of Warmup Days
    ;                        !- Minimum Number of Warmup Days

  Shading:Building:Detailed,
    Shading Surface 10,      !- Name
    ,                        !- Transmittance Schedule Name
    ,                        !- Number of Vertices
    -199.209398549336,-34.314795874639,0,  !- X,Y,Z ==> Vertex 1 {m}
    -199.210077417974,-59.0811647205886,0,  !- X,Y,Z ==> Vertex 2 {m}
    -254.308955446702,-59.0794455309167,0,  !- X,Y,Z ==> Vertex 3 {m}
    -254.308088812286,-34.3130766901488,0;  !- X,Y,Z ==> Vertex 4 {m}

  Shading:Building:Detailed,
    Shading Surface 11,      !- Name
    ,                        !- Transmittance Schedule Name
    ,                        !- Number of Vertices
    -254.308955446702,-59.0794455309167,9,  !- X,Y,Z ==> Vertex 1 {m}
    -254.308955446702,-59.0794455309167,0,  !- X,Y,Z ==> Vertex 2 {m}
    -199.210077417974,-59.0811647205886,0,  !- X,Y,Z ==> Vertex 3 {m}
    -199.210077417974,-59.0811647205886,9;  !- X,Y,Z ==> Vertex 4 {m}

  Shading:Building:Detailed,
    Shading Surface 12,      !- Name
    ,                        !- Transmittance Schedule Name
    ,                        !- Number of Vertices
    -254.308088812286,-34.3130766901488,9,  !- X,Y,Z ==> Vertex 1 {m}
    -254.308088812286,-34.3130766901488,0,  !- X,Y,Z ==> Vertex 2 {m}
    -254.308955446702,-59.0794455309167,0,  !- X,Y,Z ==> Vertex 3 {m}
    -254.308955446702,-59.0794455309167,9;  !- X,Y,Z ==> Vertex 4 {m}

  Shading:Building:Detailed,
    Shading Surface 7,       !- Name
    ,                        !- Transmittance Schedule Name
    ,                        !- Number of Vertices
    -199.209398549336,-34.314795874639,9,  !- X,Y,Z ==> Vertex 1 {m}
    -199.209398549336,-34.314795874639,0,  !- X,Y,Z ==> Vertex 2 {m}
    -254.308088812286,-34.3130766901488,0,  !- X,Y,Z ==> Vertex 3 {m}
    -254.308088812286,-34.3130766901488,9;  !- X,Y,Z ==> Vertex 4 {m}

  Shading:Building:Detailed,
    Shading Surface 8,       !- Name
    ,                        !- Transmittance Schedule Name
    ,                        !- Number of Vertices
    -199.210077417974,-59.0811647205886,9,  !- X,Y,Z ==> Vertex 1 {m}
    -199.210077417974,-59.0811647205886,0,  !- X,Y,Z ==> Vertex 2 {m}
    -199.209398549336,-34.314795874639,0,  !- X,Y,Z ==> Vertex 3 {m}
    -199.209398549336,-34.314795874639,9;  !- X,Y,Z ==> Vertex 4 {m}

  Shading:Building:Detailed,
    Shading Surface 9,       !- Name
    ,                        !- Transmittance Schedule Name
    ,                        !- Number of Vertices
    -254.308088812286,-34.3130766901488,9,  !- X,Y,Z ==> Vertex 1 {m}
    -254.308955446702,-59.0794455309167,9,  !- X,Y,Z ==> Vertex 2 {m}
    -199.210077417974,-59.0811647205886,9,  !- X,Y,Z ==> Vertex 3 {m}
    -199.209398549336,-34.314795874639,9;  !- X,Y,Z ==> Vertex 4 {m}

  Shading:Building:Detailed,
    Shading Surface 13,      !- Name
    ,                        !- Transmittance Schedule Name
    ,                        !- Number of Vertices
    -9.37812440036983,257.10386102632,9,  !- X,Y,Z ==> Vertex 1 {m}
    -9.37812440036983,257.10386102632,0,  !- X,Y,Z ==> Vertex 2 {m}
    18.0863827721238,257.103877481775,0,  !- X,Y,Z ==> Vertex 3 {m}
    18.0863827721238,257.103877481775,9;  !- X,Y,Z ==> Vertex 4 {m}

  Shading:Building:Detailed,
    Shading Surface 14,      !- Name
    ,                        !- Transmittance Schedule Name
    ,                        !- Number of Vertices
    18.0863827721238,257.103877481775,0,  !- X,Y,Z ==> Vertex 1 {m}
    -9.37812440036983,257.10386102632,0,  !- X,Y,Z ==> Vertex 2 {m}
    -9.37809845850589,277.205721868025,0,  !- X,Y,Z ==> Vertex 3 {m}
    18.086332740779,277.205738322747,0;  !- X,Y,Z ==> Vertex 4 {m}

  Shading:Building:Detailed,
    Shading Surface 15,      !- Name
    ,                        !- Transmittance Schedule Name
    ,                        !- Number of Vertices
    18.0863827721238,257.103877481775,9,  !- X,Y,Z ==> Vertex 1 {m}
    18.0863827721238,257.103877481775,0,  !- X,Y,Z ==> Vertex 2 {m}
    18.086332740779,277.205738322747,0,  !- X,Y,Z ==> Vertex 3 {m}
    18.086332740779,277.205738322747,9;  !- X,Y,Z ==> Vertex 4 {m}

  Shading:Building:Detailed,
    Shading Surface 16,      !- Name
    ,                        !- Transmittance Schedule Name
    ,                        !- Number of Vertices
    -9.37809845850589,277.205721868025,9,  !- X,Y,Z ==> Vertex 1 {m}
    -9.37809845850589,277.205721868025,0,  !- X,Y,Z ==> Vertex 2 {m}
    -9.37812440036983,257.10386102632,0,  !- X,Y,Z ==> Vertex 3 {m}
    -9.37812440036983,257.10386102632,9;  !- X,Y,Z ==> Vertex 4 {m}

  Shading:Building:Detailed,
    Shading Surface 17,      !- Name
    ,                        !- Transmittance Schedule Name
    ,                        !- Number of Vertices
    18.086332740779,277.205738322747,9,  !- X,Y,Z ==> Vertex 1 {m}
    -9.37809845850589,277.205721868025,9,  !- X,Y,Z ==> Vertex 2 {m}
    -9.37812440036983,257.10386102632,9,  !- X,Y,Z ==> Vertex 3 {m}
    18.0863827721238,257.103877481775,9;  !- X,Y,Z ==> Vertex 4 {m}

  Shading:Building:Detailed,
    Shading Surface 18,      !- Name
    ,                        !- Transmittance Schedule Name
    ,                        !- Number of Vertices
    18.086332740779,277.205738322747,9,  !- X,Y,Z ==> Vertex 1 {m}
    18.086332740779,277.205738322747,0,  !- X,Y,Z ==> Vertex 2 {m}
    -9.37809845850589,277.205721868025,0,  !- X,Y,Z ==> Vertex 3 {m}
    -9.37809845850589,277.205721868025,9;  !- X,Y,Z ==> Vertex 4 {m}

  Shading:Building:Detailed,
    Shading Surface 19,      !- Name
    ,                        !- Transmittance Schedule Name
    ,                        !- Number of Vertices
    -180.036372200331,-141.599200941711,9,  !- X,Y,Z ==> Vertex 1 {m}
    -180.036372200331,-141.599200941711,0,  !- X,Y,Z ==> Vertex 2 {m}
    -97.8058059378988,-141.600772795451,0,  !- X,Y,Z ==> Vertex 3 {m}
    -97.8058059378988,-141.600772795451,9;  !- X,Y,Z ==> Vertex 4 {m}

  Shading:Building:Detailed,
    Shading Surface 20,      !- Name
    ,                        !- Transmittance Schedule Name
    ,                        !- Number of Vertices
    -180.034955340874,-84.4033326541076,9,  !- X,Y,Z ==> Vertex 1 {m}
    -180.034955340874,-84.4033326541076,0,  !- X,Y,Z ==> Vertex 2 {m}
    -180.036372200331,-141.599200941711,0,  !- X,Y,Z ==> Vertex 3 {m}
    -180.036372200331,-141.599200941711,9;  !- X,Y,Z ==> Vertex 4 {m}

  Shading:Building:Detailed,
    Shading Surface 21,      !- Name
    ,                        !- Transmittance Schedule Name
    ,                        !- Number of Vertices
    -97.8050362204547,-84.4049044955711,9,  !- X,Y,Z ==> Vertex 1 {m}
    -97.8050362204547,-84.4049044955711,0,  !- X,Y,Z ==> Vertex 2 {m}
    -180.034955340874,-84.4033326541076,0,  !- X,Y,Z ==> Vertex 3 {m}
    -180.034955340874,-84.4033326541076,9;  !- X,Y,Z ==> Vertex 4 {m}

  Shading:Building:Detailed,
    Shading Surface 22,      !- Name
    ,                        !- Transmittance Schedule Name
    ,                        !- Number of Vertices
    -97.8050362204547,-84.4049044955711,0,  !- X,Y,Z ==> Vertex 1 {m}
    -97.8058059378988,-141.600772795451,0,  !- X,Y,Z ==> Vertex 2 {m}
    -180.036372200331,-141.599200941711,0,  !- X,Y,Z ==> Vertex 3 {m}
    -180.034955340874,-84.4033326541076,0;  !- X,Y,Z ==> Vertex 4 {m}

  Shading:Building:Detailed,
    Shading Surface 23,      !- Name
    ,                        !- Transmittance Schedule Name
    ,                        !- Number of Vertices
    -97.8058059378988,-141.600772795451,9,  !- X,Y,Z ==> Vertex 1 {m}
    -97.8058059378988,-141.600772795451,0,  !- X,Y,Z ==> Vertex 2 {m}
    -97.8050362204547,-84.4049044955711,0,  !- X,Y,Z ==> Vertex 3 {m}
    -97.8050362204547,-84.4049044955711,9;  !- X,Y,Z ==> Vertex 4 {m}

  Shading:Building:Detailed,
    Shading Surface 24,      !- Name
    ,                        !- Transmittance Schedule Name
    ,                        !- Number of Vertices
    -180.034955340874,-84.4033326541076,9,  !- X,Y,Z ==> Vertex 1 {m}
    -180.036372200331,-141.599200941711,9,  !- X,Y,Z ==> Vertex 2 {m}
    -97.8058059378988,-141.600772795451,9,  !- X,Y,Z ==> Vertex 3 {m}
    -97.8050362204547,-84.4049044955711,9;  !- X,Y,Z ==> Vertex 4 {m}

  Shading:Building:Detailed,
    Shading Surface 25,      !- Name
    ,                        !- Transmittance Schedule Name
    ,                        !- Number of Vertices
    111.622907275436,-164.812099384495,0,  !- X,Y,Z ==> Vertex 1 {m}
    -47.3120349713855,-164.812802590999,0,  !- X,Y,Z ==> Vertex 2 {m}
    -47.3115859985814,-95.8445826913393,0,  !- X,Y,Z ==> Vertex 3 {m}
    111.621848018059,-95.8438794914173,0;  !- X,Y,Z ==> Vertex 4 {m}

  Shading:Building:Detailed,
    Shading Surface 26,      !- Name
    ,                        !- Transmittance Schedule Name
    ,                        !- Number of Vertices
    -47.3120349713855,-164.812802590999,9,  !- X,Y,Z ==> Vertex 1 {m}
    -47.3120349713855,-164.812802590999,0,  !- X,Y,Z ==> Vertex 2 {m}
    111.622907275436,-164.812099384495,0,  !- X,Y,Z ==> Vertex 3 {m}
    111.622907275436,-164.812099384495,9;  !- X,Y,Z ==> Vertex 4 {m}

  Shading:Building:Detailed,
    Shading Surface 27,      !- Name
    ,                        !- Transmittance Schedule Name
    ,                        !- Number of Vertices
    111.621848018059,-95.8438794914173,9,  !- X,Y,Z ==> Vertex 1 {m}
    111.621848018059,-95.8438794914173,0,  !- X,Y,Z ==> Vertex 2 {m}
    -47.3115859985814,-95.8445826913393,0,  !- X,Y,Z ==> Vertex 3 {m}
    -47.3115859985814,-95.8445826913393,9;  !- X,Y,Z ==> Vertex 4 {m}

  Shading:Building:Detailed,
    Shading Surface 28,      !- Name
    ,                        !- Transmittance Schedule Name
    ,                        !- Number of Vertices
    -47.3115859985814,-95.8445826913393,9,  !- X,Y,Z ==> Vertex 1 {m}
    -47.3115859985814,-95.8445826913393,0,  !- X,Y,Z ==> Vertex 2 {m}
    -47.3120349713855,-164.812802590999,0,  !- X,Y,Z ==> Vertex 3 {m}
    -47.3120349713855,-164.812802590999,9;  !- X,Y,Z ==> Vertex 4 {m}

  Shading:Building:Detailed,
    Shading Surface 29,      !- Name
    ,                        !- Transmittance Schedule Name
    ,                        !- Number of Vertices
    111.622907275436,-164.812099384495,9,  !- X,Y,Z ==> Vertex 1 {m}
    111.622907275436,-164.812099384495,0,  !- X,Y,Z ==> Vertex 2 {m}
    111.621848018059,-95.8438794914173,0,  !- X,Y,Z ==> Vertex 3 {m}
    111.621848018059,-95.8438794914173,9;  !- X,Y,Z ==> Vertex 4 {m}

  Shading:Building:Detailed,
    Shading Surface 30,      !- Name
    ,                        !- Transmittance Schedule Name
    ,                        !- Number of Vertices
    111.621848018059,-95.8438794914173,9,  !- X,Y,Z ==> Vertex 1 {m}
    -47.3115859985814,-95.8445826913393,9,  !- X,Y,Z ==> Vertex 2 {m}
    -47.3120349713855,-164.812802590999,9,  !- X,Y,Z ==> Vertex 3 {m}
    111.622907275436,-164.812099384495,9;  !- X,Y,Z ==> Vertex 4 {m}

  Shading:Building:Detailed,
    Shading Surface 31,      !- Name
    ,                        !- Transmittance Schedule Name
    ,                        !- Number of Vertices
    32.9909029173405,256.881809854331,9,  !- X,Y,Z ==> Vertex 1 {m}
    32.9909029173405,256.881809854331,0,  !- X,Y,Z ==> Vertex 2 {m}
    32.9907980428357,279.982290865581,0,  !- X,Y,Z ==> Vertex 3 {m}
    32.9907980428357,279.982290865581,9;  !- X,Y,Z ==> Vertex 4 {m}

  Shading:Building:Detailed,
    Shading Surface 32,      !- Name
    ,                        !- Transmittance Schedule Name
    ,                        !- Number of Vertices
    24.5337660571785,279.982257394532,9,  !- X,Y,Z ==> Vertex 1 {m}
    24.5337660571785,279.982257394532,0,  !- X,Y,Z ==> Vertex 2 {m}
    24.5338440480084,256.881776382827,0,  !- X,Y,Z ==> Vertex 3 {m}
    24.5338440480084,256.881776382827,9;  !- X,Y,Z ==> Vertex 4 {m}

  Shading:Building:Detailed,
    Shading Surface 33,      !- Name
    ,                        !- Transmittance Schedule Name
    ,                        !- Number of Vertices
    32.9909029173405,256.881809854331,0,  !- X,Y,Z ==> Vertex 1 {m}
    24.5338440480084,256.881776382827,0,  !- X,Y,Z ==> Vertex 2 {m}
    24.5337660571785,279.982257394532,0,  !- X,Y,Z ==> Vertex 3 {m}
    32.9907980428357,279.982290865581,0;  !- X,Y,Z ==> Vertex 4 {m}

  Shading:Building:Detailed,
    Shading Surface 34,      !- Name
    ,                        !- Transmittance Schedule Name
    ,                        !- Number of Vertices
    24.5338440480084,256.881776382827,9,  !- X,Y,Z ==> Vertex 1 {m}
    24.5338440480084,256.881776382827,0,  !- X,Y,Z ==> Vertex 2 {m}
    32.9909029173405,256.881809854331,0,  !- X,Y,Z ==> Vertex 3 {m}
    32.9909029173405,256.881809854331,9;  !- X,Y,Z ==> Vertex 4 {m}

  Shading:Building:Detailed,
    Shading Surface 35,      !- Name
    ,                        !- Transmittance Schedule Name
    ,                        !- Number of Vertices
    32.9907980428357,279.982290865581,9,  !- X,Y,Z ==> Vertex 1 {m}
    32.9907980428357,279.982290865581,0,  !- X,Y,Z ==> Vertex 2 {m}
    24.5337660571785,279.982257394532,0,  !- X,Y,Z ==> Vertex 3 {m}
    24.5337660571785,279.982257394532,9;  !- X,Y,Z ==> Vertex 4 {m}

  Shading:Building:Detailed,
    Shading Surface 36,      !- Name
    ,                        !- Transmittance Schedule Name
    ,                        !- Number of Vertices
    32.9907980428357,279.982290865581,9,  !- X,Y,Z ==> Vertex 1 {m}
    24.5337660571785,279.982257394532,9,  !- X,Y,Z ==> Vertex 2 {m}
    24.5338440480084,256.881776382827,9,  !- X,Y,Z ==> Vertex 3 {m}
    32.9909029173405,256.881809854331,9;  !- X,Y,Z ==> Vertex 4 {m}

  Shading:Building:Detailed,
    Shading Surface 37,      !- Name
    ,                        !- Transmittance Schedule Name
    ,                        !- Number of Vertices
    60.1216539888917,114.725195804284,9,  !- X,Y,Z ==> Vertex 1 {m}
    60.1216539888917,114.725195804284,0,  !- X,Y,Z ==> Vertex 2 {m}
    95.5415142046276,114.725575144435,0,  !- X,Y,Z ==> Vertex 3 {m}
    95.5415142046276,114.725575144435,9;  !- X,Y,Z ==> Vertex 4 {m}

  Shading:Building:Detailed,
    Shading Surface 38,      !- Name
    ,                        !- Transmittance Schedule Name
    ,                        !- Number of Vertices
    95.5415142046276,114.725575144435,9,  !- X,Y,Z ==> Vertex 1 {m}
    95.5415142046276,114.725575144435,0,  !- X,Y,Z ==> Vertex 2 {m}
    95.5408644541111,164.147267330628,0,  !- X,Y,Z ==> Vertex 3 {m}
    95.5408644541111,164.147267330628,9;  !- X,Y,Z ==> Vertex 4 {m}

  Shading:Building:Detailed,
    Shading Surface 39,      !- Name
    ,                        !- Transmittance Schedule Name
    ,                        !- Number of Vertices
    95.5408644541111,164.147267330628,9,  !- X,Y,Z ==> Vertex 1 {m}
    60.1212451188732,164.146887993095,9,  !- X,Y,Z ==> Vertex 2 {m}
    60.1216539888917,114.725195804284,9,  !- X,Y,Z ==> Vertex 3 {m}
    95.5415142046276,114.725575144435,9;  !- X,Y,Z ==> Vertex 4 {m}

  Shading:Building:Detailed,
    Shading Surface 40,      !- Name
    ,                        !- Transmittance Schedule Name
    ,                        !- Number of Vertices
    95.5415142046276,114.725575144435,0,  !- X,Y,Z ==> Vertex 1 {m}
    60.1216539888917,114.725195804284,0,  !- X,Y,Z ==> Vertex 2 {m}
    60.1212451188732,164.146887993095,0,  !- X,Y,Z ==> Vertex 3 {m}
    95.5408644541111,164.147267330628,0;  !- X,Y,Z ==> Vertex 4 {m}

  Shading:Building:Detailed,
    Shading Surface 41,      !- Name
    ,                        !- Transmittance Schedule Name
    ,                        !- Number of Vertices
    95.5408644541111,164.147267330628,9,  !- X,Y,Z ==> Vertex 1 {m}
    95.5408644541111,164.147267330628,0,  !- X,Y,Z ==> Vertex 2 {m}
    60.1212451188732,164.146887993095,0,  !- X,Y,Z ==> Vertex 3 {m}
    60.1212451188732,164.146887993095,9;  !- X,Y,Z ==> Vertex 4 {m}

  Shading:Building:Detailed,
    Shading Surface 42,      !- Name
    ,                        !- Transmittance Schedule Name
    ,                        !- Number of Vertices
    60.1212451188732,164.146887993095,9,  !- X,Y,Z ==> Vertex 1 {m}
    60.1212451188732,164.146887993095,0,  !- X,Y,Z ==> Vertex 2 {m}
    60.1216539888917,114.725195804284,0,  !- X,Y,Z ==> Vertex 3 {m}
    60.1216539888917,114.725195804284,9;  !- X,Y,Z ==> Vertex 4 {m}

  Shading:Building:Detailed,
    Shading Surface 43,      !- Name
    ,                        !- Transmittance Schedule Name
    ,                        !- Number of Vertices
    103.412747550335,103.952865097543,9,  !- X,Y,Z ==> Vertex 1 {m}
    103.412747550335,103.952865097543,0,  !- X,Y,Z ==> Vertex 2 {m}
    177.518238682976,103.954297435519,0,  !- X,Y,Z ==> Vertex 3 {m}
    177.518238682976,103.954297435519,9;  !- X,Y,Z ==> Vertex 4 {m}

  Shading:Building:Detailed,
    Shading Surface 44,      !- Name
    ,                        !- Transmittance Schedule Name
    ,                        !- Number of Vertices
    103.411762959149,173.143234061381,9,  !- X,Y,Z ==> Vertex 1 {m}
    103.411762959149,173.143234061381,0,  !- X,Y,Z ==> Vertex 2 {m}
    103.412747550335,103.952865097543,0,  !- X,Y,Z ==> Vertex 3 {m}
    103.412747550335,103.952865097543,9;  !- X,Y,Z ==> Vertex 4 {m}

  Shading:Building:Detailed,
    Shading Surface 45,      !- Name
    ,                        !- Transmittance Schedule Name
    ,                        !- Number of Vertices
    177.518238682976,103.954297435519,0,  !- X,Y,Z ==> Vertex 1 {m}
    103.412747550335,103.952865097543,0,  !- X,Y,Z ==> Vertex 2 {m}
    103.411762959149,173.143234061381,0,  !- X,Y,Z ==> Vertex 3 {m}
    177.516548535232,173.144666385092,0;  !- X,Y,Z ==> Vertex 4 {m}

  Shading:Building:Detailed,
    Shading Surface 46,      !- Name
    ,                        !- Transmittance Schedule Name
    ,                        !- Number of Vertices
    177.516548535232,173.144666385092,9,  !- X,Y,Z ==> Vertex 1 {m}
    177.516548535232,173.144666385092,0,  !- X,Y,Z ==> Vertex 2 {m}
    103.411762959149,173.143234061381,0,  !- X,Y,Z ==> Vertex 3 {m}
    103.411762959149,173.143234061381,9;  !- X,Y,Z ==> Vertex 4 {m}

  Shading:Building:Detailed,
    Shading Surface 47,      !- Name
    ,                        !- Transmittance Schedule Name
    ,                        !- Number of Vertices
    177.518238682976,103.954297435519,9,  !- X,Y,Z ==> Vertex 1 {m}
    177.518238682976,103.954297435519,0,  !- X,Y,Z ==> Vertex 2 {m}
    177.516548535232,173.144666385092,0,  !- X,Y,Z ==> Vertex 3 {m}
    177.516548535232,173.144666385092,9;  !- X,Y,Z ==> Vertex 4 {m}

  Shading:Building:Detailed,
    Shading Surface 48,      !- Name
    ,                        !- Transmittance Schedule Name
    ,                        !- Number of Vertices
    177.516548535232,173.144666385092,9,  !- X,Y,Z ==> Vertex 1 {m}
    103.411762959149,173.143234061381,9,  !- X,Y,Z ==> Vertex 2 {m}
    103.412747550335,103.952865097543,9,  !- X,Y,Z ==> Vertex 3 {m}
    177.518238682976,103.954297435519,9;  !- X,Y,Z ==> Vertex 4 {m}

  Shading:Building:Detailed,
    Shading Surface 49,      !- Name
    ,                        !- Transmittance Schedule Name
    ,                        !- Number of Vertices
    -371.525314488319,240.121171624163,9,  !- X,Y,Z ==> Vertex 1 {m}
    -371.525314488319,240.121171624163,0,  !- X,Y,Z ==> Vertex 2 {m}
    -371.531213907614,124.72984224414,0,  !- X,Y,Z ==> Vertex 3 {m}
    -371.531213907614,124.72984224414,9;  !- X,Y,Z ==> Vertex 4 {m}

  Shading:Building:Detailed,
    Shading Surface 50,      !- Name
    ,                        !- Transmittance Schedule Name
    ,                        !- Number of Vertices
    47.5605992410684,240.111830389338,0,  !- X,Y,Z ==> Vertex 1 {m}
    47.5613544515311,124.720500861649,0,  !- X,Y,Z ==> Vertex 2 {m}
    -371.531213907614,124.72984224414,0,  !- X,Y,Z ==> Vertex 3 {m}
    -371.525314488319,240.121171624163,0;  !- X,Y,Z ==> Vertex 4 {m}

  Shading:Building:Detailed,
    Shading Surface 51,      !- Name
    ,                        !- Transmittance Schedule Name
    ,                        !- Number of Vertices
    -371.525314488319,240.121171624163,9,  !- X,Y,Z ==> Vertex 1 {m}
    -371.531213907614,124.72984224414,9,  !- X,Y,Z ==> Vertex 2 {m}
    47.5613544515311,124.720500861649,9,  !- X,Y,Z ==> Vertex 3 {m}
    47.5605992410684,240.111830389338,9;  !- X,Y,Z ==> Vertex 4 {m}

  Shading:Building:Detailed,
    Shading Surface 52,      !- Name
    ,                        !- Transmittance Schedule Name
    ,                        !- Number of Vertices
    47.5613544515311,124.720500861649,9,  !- X,Y,Z ==> Vertex 1 {m}
    47.5613544515311,124.720500861649,0,  !- X,Y,Z ==> Vertex 2 {m}
    47.5605992410684,240.111830389338,0,  !- X,Y,Z ==> Vertex 3 {m}
    47.5605992410684,240.111830389338,9;  !- X,Y,Z ==> Vertex 4 {m}

  Shading:Building:Detailed,
    Shading Surface 53,      !- Name
    ,                        !- Transmittance Schedule Name
    ,                        !- Number of Vertices