  ConvergenceLimits,
    0,                       !- Minimum System Timestep {minutes}
    25;                      !- Maximum HVAC Iterations

  Version,23.1;

  Timestep,1;

  LifeCycleCost:Parameters,
    Life Cycle Cost Parameters,  !- Name
    EndOfYear,               !- Discounting Convention
    ConstantDollar,          !- Inflation Approach
    0.03,                    !- Real Discount Rate
    ,                        !- Nominal Discount Rate
    ,                        !- Inflation
    ,                        !- Base Date Month
    2011,                    !- Base Date Year
    ,                        !- Service Date Month
    2011,                    !- Service Date Year
    25,                      !- Length of Study Period in Years
    ,                        !- Tax rate
    None;                    !- Depreciation Method

  LifeCycleCost:UsePriceEscalation,
    U.S. Avg  Commercial-Electricity,  !- LCC Price Escalation Name
    Electricity,             !- Resource
    2011,                    !- Escalation Start Year
    January,                 !- Escalation Start Month
    0.9838,                  !- Year 1 Escalation
    0.9730,                  !- Year 2 Escalation
    0.9632,                  !- Year 3 Escalation
    0.9611,                  !- Year 4 Escalation
    0.9571,                  !- Year 5 Escalation
    0.9553,                  !- Year 6 Escalation
    0.9539,                  !- Year 7 Escalation
    0.9521,                  !- Year 8 Escalation
    0.9546,                  !- Year 9 Escalation
    0.9550,                  !- <none>
    0.9553,                  !- <none>
    0.9564,                  !- <none>
    0.9575,                  !- <none>
    0.9596,                  !- <none>
    0.9618,                  !- <none>
    0.9614,                  !- <none>
    0.9618,                  !- <none>
    0.9618,                  !- <none>
    0.9593,                  !- <none>
    0.9589,                  !- <none>
    0.9607,                  !- <none>
    0.9625,                  !- <none>
    0.9650,                  !- <none>
    0.9708,                  !- <none>
    0.9751,                  !- <none>
    0.9762,                  !- <none>
    0.9766,                  !- <none>
    0.9766,                  !- <none>
    0.9769,                  !- <none>
    0.9773;                  !- <none>

  LifeCycleCost:UsePriceEscalation,
    U.S. Avg  Commercial-Distillate Oil,  !- LCC Price Escalation Name
    FuelOilNo1,              !- Resource
    2011,                    !- Escalation Start Year
    January,                 !- Escalation Start Month
    0.9714,                  !- Year 1 Escalation
    0.9730,                  !- Year 2 Escalation
    0.9942,                  !- Year 3 Escalation
    1.0164,                  !- Year 4 Escalation
    1.0541,                  !- Year 5 Escalation
    1.0928,                  !- Year 6 Escalation
    1.1267,                  !- Year 7 Escalation
    1.1580,                  !- Year 8 Escalation
    1.1792,                  !- Year 9 Escalation
    1.1967,                  !- <none>
    1.2200,                  !- <none>
    1.2333,                  !- <none>
    1.2566,                  !- <none>
    1.2709,                  !- <none>
    1.2826,                  !- <none>
    1.2985,                  !- <none>
    1.3102,                  !- <none>
    1.3250,                  !- <none>
    1.3261,                  !- <none>
    1.3282,                  !- <none>
    1.3324,                  !- <none>
    1.3356,                  !- <none>
    1.3431,                  !- <none>
    1.3510,                  !- <none>
    1.3568,                  !- <none>
    1.3606,                  !- <none>
    1.3637,                  !- <none>
    1.3674,                  !- <none>
    1.3706,                  !- <none>
    1.3743;                  !- <none>

  LifeCycleCost:UsePriceEscalation,
    U.S. Avg  Commercial-Residual Oil,  !- LCC Price Escalation Name
    FuelOilNo2,              !- Resource
    2011,                    !- Escalation Start Year
    January,                 !- Escalation Start Month
    0.8469,                  !- Year 1 Escalation
    0.8257,                  !- Year 2 Escalation
    0.8681,                  !- Year 3 Escalation
    0.8988,                  !- Year 4 Escalation
    0.9289,                  !- Year 5 Escalation
    0.9604,                  !- Year 6 Escalation
    0.9897,                  !- Year 7 Escalation
    1.0075,                  !- Year 8 Escalation
    1.0314,                  !- Year 9 Escalation
    1.0554,                  !- <none>
    1.0861,                  !- <none>
    1.1278,                  !- <none>
    1.1497,                  !- <none>
    1.1620,                  !- <none>
    1.1743,                  !- <none>
    1.1852,                  !- <none>
    1.1948,                  !- <none>
    1.2037,                  !- <none>
    1.2071,                  !- <none>
    1.2119,                  !- <none>
    1.2139,                  !- <none>
    1.2194,                  !- <none>
    1.2276,                  !- <none>
    1.2365,                  !- <none>
    1.2420,                  !- <none>
    1.2461,                  !- <none>
    1.2509,                  !- <none>
    1.2550,                  !- <none>
    1.2591,                  !- <none>
    1.2638;                  !- <none>

  LifeCycleCost:UsePriceEscalation,
    U.S. Avg  Commercial-Natural gas,  !- LCC Price Escalation Name
    NaturalGas,              !- Resource
    2011,                    !- Escalation Start Year
    January,                 !- Escalation Start Month
    0.9823,                  !- Year 1 Escalation
    0.9557,                  !- Year 2 Escalation
    0.9279,                  !- Year 3 Escalation
    0.9257,                  !- Year 4 Escalation
    0.9346,                  !- Year 5 Escalation
    0.9412,                  !- Year 6 Escalation
    0.9512,                  !- Year 7 Escalation
    0.9645,                  !- Year 8 Escalation
    0.9856,                  !- Year 9 Escalation
    1.0067,                  !- <none>
    1.0222,                  !- <none>
    1.0410,                  !- <none>
    1.0610,                  !- <none>
    1.0787,                  !- <none>
    1.0942,                  !- <none>
    1.1098,                  !- <none>
    1.1220,                  !- <none>
    1.1308,                  !- <none>
    1.1386,                  !- <none>
    1.1486,                  !- <none>
    1.1619,                  !- <none>
    1.1763,                  !- <none>
    1.1918,                  !- <none>
    1.2118,                  !- <none>
    1.2284,                  !- <none>
    1.2439,                  !- <none>
    1.2605,                  !- <none>
    1.2772,                  !- <none>
    1.2938,                  !- <none>
    1.3115;                  !- <none>

  LifeCycleCost:UsePriceEscalation,
    U.S. Avg  Commercial-Coal,  !- LCC Price Escalation Name
    Coal,                    !- Resource
    2011,                    !- Escalation Start Year
    January,                 !- Escalation Start Month
    0.9970,                  !- Year 1 Escalation
    1.0089,                  !- Year 2 Escalation
    1.0089,                  !- Year 3 Escalation
    0.9941,                  !- Year 4 Escalation
    0.9941,                  !- Year 5 Escalation
    1.0000,                  !- Year 6 Escalation
    1.0030,                  !- Year 7 Escalation
    1.0059,                  !- Year 8 Escalation
    1.0089,                  !- Year 9 Escalation
    1.0119,                  !- <none>
    1.0148,                  !- <none>
    1.0178,                  !- <none>
    1.0208,                  !- <none>
    1.0267,                  !- <none>
    1.0297,                  !- <none>
    1.0356,                  !- <none>
    1.0415,                  !- <none>
    1.0534,                  !- <none>
    1.0564,                  !- <none>
    1.0593,                  !- <none>
    1.0653,                  !- <none>
    1.0712,                  !- <none>
    1.0742,                  !- <none>
    1.0801,                  !- <none>
    1.0831,                  !- <none>
    1.0831,                  !- <none>
    1.0861,                  !- <none>
    1.0890,                  !- <none>
    1.0920,                  !- <none>
    1.0950;                  !- <none>

  Building,
    bld_6,                   !- Name
    ,                        !- North Axis {deg}
    City,                    !- Terrain
    ,                        !- Loads Convergence Tolerance Value {W}
    ,                        !- Temperature Convergence Tolerance Value {deltaC}
    ,                        !- Solar Distribution
    ,                        !- Maximum Number of Warmup Days
    ;                        !- Minimum Number of Warmup Days

  Shading:Building:Detailed,
    Shading Surface 32,      !- Name
    ,                        !- Transmittance Schedule Name
    ,                        !- Number of Vertices
    78.5445766312764,20.5465163545459,12,  !- X,Y,Z ==> Vertex 1 {m}
    78.5445766312764,20.5465163545459,0,  !- X,Y,Z ==> Vertex 2 {m}
    147.71077759725,16.5494345404109,0,  !- X,Y,Z ==> Vertex 3 {m}
    147.71077759725,16.5494345404109,12;  !- X,Y,Z ==> Vertex 4 {m}

  Shading:Building:Detailed,
    Shading Surface 33,      !- Name
    ,                        !- Transmittance Schedule Name
    ,                        !- Number of Vertices
    141.178528811227,58.7520899176169,12,  !- X,Y,Z ==> Vertex 1 {m}
    141.178528811227,58.7520899176169,0,  !- X,Y,Z ==> Vertex 2 {m}
    88.8436282775111,61.7498807436143,0,  !- X,Y,Z ==> Vertex 3 {m}
    88.8436282775111,61.7498807436143,12;  !- X,Y,Z ==> Vertex 4 {m}

  Shading:Building:Detailed,
    Shading Surface 34,      !- Name
    ,                        !- Transmittance Schedule Name
    ,                        !- Number of Vertices
    149.719745619962,50.6448834843868,12,  !- X,Y,Z ==> Vertex 1 {m}
    149.719745619962,50.6448834843868,0,  !- X,Y,Z ==> Vertex 2 {m}
    140.759996175053,51.2000042406129,0,  !- X,Y,Z ==> Vertex 3 {m}
    140.759996175053,51.2000042406129,12;  !- X,Y,Z ==> Vertex 4 {m}

  Shading:Building:Detailed,
    Shading Surface 35,      !- Name
    ,                        !- Transmittance Schedule Name
    ,                        !- Number of Vertices
    88.8436282775111,61.7498807436143,12,  !- X,Y,Z ==> Vertex 1 {m}
    88.5087502115982,56.418998346229,12,  !- X,Y,Z ==> Vertex 2 {m}
    80.637579228881,56.8631466052402,12,  !- X,Y,Z ==> Vertex 3 {m}
    78.5445766312764,20.5465163545459,12,  !- X,Y,Z ==> Vertex 4 {m}
    147.71077759725,16.5494345404109,12,  !- X,Y,Z ==> Vertex 5 {m}
    149.719745619962,50.6448834843868,12,  !- X,Y,Z ==> Vertex 6 {m}
    140.759996175053,51.2000042406129,12,  !- X,Y,Z ==> Vertex 7 {m}
    141.178528811227,58.7520899176169,12;  !- X,Y,Z ==> Vertex 8 {m}

  Shading:Building:Detailed,
    Shading Surface 36,      !- Name
    ,                        !- Transmittance Schedule Name
    ,                        !- Number of Vertices
    140.759996175053,51.2000042406129,12,  !- X,Y,Z ==> Vertex 1 {m}
    140.759996175053,51.2000042406129,0,  !- X,Y,Z ==> Vertex 2 {m}
    141.178528811227,58.7520899176169,0,  !- X,Y,Z ==> Vertex 3 {m}
    141.178528811227,58.7520899176169,12;  !- X,Y,Z ==> Vertex 4 {m}

  Shading:Building:Detailed,
    Shading Surface 37,      !- Name
    ,                        !- Transmittance Schedule Name
    ,                        !- Number of Vertices
    141.178528811227,58.7520899176169,0,  !- X,Y,Z ==> Vertex 1 {m}
    140.759996175053,51.2000042406129,0,  !- X,Y,Z ==> Vertex 2 {m}
    149.719745619962,50.6448834843868,0,  !- X,Y,Z ==> Vertex 3 {m}
    147.71077759725,16.5494345404109,0,  !- X,Y,Z ==> Vertex 4 {m}
    78.5445766312764,20.5465163545459,0,  !- X,Y,Z ==> Vertex 5 {m}
    80.637579228881,56.8631466052402,0,  !- X,Y,Z ==> Vertex 6 {m}
    88.5087502115982,56.418998346229,0,  !- X,Y,Z ==> Vertex 7 {m}
    88.8436282775111,61.7498807436143,0;  !- X,Y,Z ==> Vertex 8 {m}

  Shading:Building:Detailed,
    Shading Surface 38,      !- Name
    ,                        !- Transmittance Schedule Name
    ,                        !- Number of Vertices
    80.637579228881,56.8631466052402,12,  !- X,Y,Z ==> Vertex 1 {m}
    80.637579228881,56.8631466052402,0,  !- X,Y,Z ==> Vertex 2 {m}
    78.5445766312764,20.5465163545459,0,  !- X,Y,Z ==> Vertex 3 {m}
    78.5445766312764,20.5465163545459,12;  !- X,Y,Z ==> Vertex 4 {m}

  Shading:Building:Detailed,
    Shading Surface 39,      !- Name
    ,                        !- Transmittance Schedule Name
    ,                        !- Number of Vertices
    147.71077759725,16.5494345404109,12,  !- X,Y,Z ==> Vertex 1 {m}
    147.71077759725,16.5494345404109,0,  !- X,Y,Z ==> Vertex 2 {m}
    149.719745619962,50.6448834843868,0,  !- X,Y,Z ==> Vertex 3 {m}
    149.719745619962,50.6448834843868,12;  !- X,Y,Z ==> Vertex 4 {m}

  Shading:Building:Detailed,
    Shading Surface 40,      !- Name
    ,                        !- Transmittance Schedule Name
    ,                        !- Number of Vertices
    88.8436282775111,61.7498807436143,12,  !- X,Y,Z ==> Vertex 1 {m}
    88.8436282775111,61.7498807436143,0,  !- X,Y,Z ==> Vertex 2 {m}
    88.5087502115982,56.418998346229,0,  !- X,Y,Z ==> Vertex 3 {m}
    88.5087502115982,56.418998346229,12;  !- X,Y,Z ==> Vertex 4 {m}

  Shading:Building:Detailed,
    Shading Surface 41,      !- Name
    ,                        !- Transmittance Schedule Name
    ,                        !- Number of Vertices
    88.5087502115982,56.418998346229,12,  !- X,Y,Z ==> Vertex 1 {m}
    88.5087502115982,56.418998346229,0,  !- X,Y,Z ==> Vertex 2 {m}
    80.637579228881,56.8631466052402,0,  !- X,Y,Z ==> Vertex 3 {m}
    80.637579228881,56.8631466052402,12;  !- X,Y,Z ==> Vertex 4 {m}

  Shading:Building:Detailed,
    Shading Surface 42,      !- Name
    ,                        !- Transmittance Schedule Name
    ,                        !- Number of Vertices
    224.916758210373,-20.3204909522063,12,  !- X,Y,Z ==> Vertex 1 {m}
    224.916758210373,-20.3204909522063,0,  !- X,Y,Z ==> Vertex 2 {m}
    209.090494428878,-19.3214239573184,0,  !- X,Y,Z ==> Vertex 3 {m}
    209.090494428878,-19.3214239573184,12;  !- X,Y,Z ==> Vertex 4 {m}

  Shading:Building:Detailed,
    Shading Surface 43,      !- Name
    ,                        !- Transmittance Schedule Name
    ,                        !- Number of Vertices
    244.594683014788,-14.4336778837351,0,  !- X,Y,Z ==> Vertex 1 {m}
    244.176257356844,-22.0968285983198,0,  !- X,Y,Z ==> Vertex 2 {m}
    263.184535604711,-23.3178245492146,0,  !- X,Y,Z ==> Vertex 3 {m}
    262.263960631047,-37.9777711251129,0,  !- X,Y,Z ==> Vertex 4 {m}
    208.086093073694,-34.647725861028,0,  !- X,Y,Z ==> Vertex 5 {m}
    209.090494428878,-19.3214239573184,0,  !- X,Y,Z ==> Vertex 6 {m}
    224.916758210373,-20.3204909522063,0,  !- X,Y,Z ==> Vertex 7 {m}
    225.335221292725,-13.212641086999,0;  !- X,Y,Z ==> Vertex 8 {m}

  Shading:Building:Detailed,
    Shading Surface 44,      !- Name
    ,                        !- Transmittance Schedule Name
    ,                        !- Number of Vertices
    262.263960631047,-37.9777711251129,12,  !- X,Y,Z ==> Vertex 1 {m}
    262.263960631047,-37.9777711251129,0,  !- X,Y,Z ==> Vertex 2 {m}
    263.184535604711,-23.3178245492146,0,  !- X,Y,Z ==> Vertex 3 {m}
    263.184535604711,-23.3178245492146,12;  !- X,Y,Z ==> Vertex 4 {m}

  Shading:Building:Detailed,
    Shading Surface 45,      !- Name
    ,                        !- Transmittance Schedule Name
    ,                        !- Number of Vertices
    209.090494428878,-19.3214239573184,12,  !- X,Y,Z ==> Vertex 1 {m}
    209.090494428878,-19.3214239573184,0,  !- X,Y,Z ==> Vertex 2 {m}
    208.086093073694,-34.647725861028,0,  !- X,Y,Z ==> Vertex 3 {m}
    208.086093073694,-34.647725861028,12;  !- X,Y,Z ==> Vertex 4 {m}

  Shading:Building:Detailed,
    Shading Surface 46,      !- Name
    ,                        !- Transmittance Schedule Name
    ,                        !- Number of Vertices
    225.335221292725,-13.212641086999,12,  !- X,Y,Z ==> Vertex 1 {m}
    225.335221292725,-13.212641086999,0,  !- X,Y,Z ==> Vertex 2 {m}
    224.916758210373,-20.3204909522063,0,  !- X,Y,Z ==> Vertex 3 {m}
    224.916758210373,-20.3204909522063,12;  !- X,Y,Z ==> Vertex 4 {m}

  Shading:Building:Detailed,
    Shading Surface 47,      !- Name
    ,                        !- Transmittance Schedule Name
    ,                        !- Number of Vertices
    225.335221292725,-13.212641086999,12,  !- X,Y,Z ==> Vertex 1 {m}
    224.916758210373,-20.3204909522063,12,  !- X,Y,Z ==> Vertex 2 {m}
    209.090494428878,-19.3214239573184,12,  !- X,Y,Z ==> Vertex 3 {m}
    208.086093073694,-34.647725861028,12,  !- X,Y,Z ==> Vertex 4 {m}
    262.263960631047,-37.9777711251129,12,  !- X,Y,Z ==> Vertex 5 {m}
    263.184535604711,-23.3178245492146,12,  !- X,Y,Z ==> Vertex 6 {m}
    244.176257356844,-22.0968285983198,12,  !- X,Y,Z ==> Vertex 7 {m}
    244.594683014788,-14.4336778837351,12;  !- X,Y,Z ==> Vertex 8 {m}

  Shading:Building:Detailed,
    Shading Surface 48,      !- Name
    ,                        !- Transmittance Schedule Name
    ,                        !- Number of Vertices
    244.594683014788,-14.4336778837351,12,  !- X,Y,Z ==> Vertex 1 {m}
    244.594683014788,-14.4336778837351,0,  !- X,Y,Z ==> Vertex 2 {m}
    225.335221292725,-13.212641086999,0,  !- X,Y,Z ==> Vertex 3 {m}
    225.335221292725,-13.212641086999,12;  !- X,Y,Z ==> Vertex 4 {m}

  Shading:Building:Detailed,
    Shading Surface 49,      !- Name
    ,                        !- Transmittance Schedule Name
    ,                        !- Number of Vertices
    244.176257356844,-22.0968285983198,12,  !- X,Y,Z ==> Vertex 1 {m}
    244.176257356844,-22.0968285983198,0,  !- X,Y,Z ==> Vertex 2 {m}
    244.594683014788,-14.4336778837351,0,  !- X,Y,Z ==> Vertex 3 {m}
    244.594683014788,-14.4336778837351,12;  !- X,Y,Z ==> Vertex 4 {m}

  Shading:Building:Detailed,
    Shading Surface 50,      !- Name
    ,                        !- Transmittance Schedule Name
    ,                        !- Number of Vertices
    263.184535604711,-23.3178245492146,12,  !- X,Y,Z ==> Vertex 1 {m}
    263.184535604711,-23.3178245492146,0,  !- X,Y,Z ==> Vertex 2 {m}
    244.176257356844,-22.0968285983198,0,  !- X,Y,Z ==> Vertex 3 {m}
    244.176257356844,-22.0968285983198,12;  !- X,Y,Z ==> Vertex 4 {m}

  Shading:Building:Detailed,
    Shading Surface 51,      !- Name
    ,                        !- Transmittance Schedule Name
    ,                        !- Number of Vertices
    208.086093073694,-34.647725861028,12,  !- X,Y,Z ==> Vertex 1 {m}
    208.086093073694,-34.647725861028,0,  !- X,Y,Z ==> Vertex 2 {m}
    262.263960631047,-37.9777711251129,0,  !- X,Y,Z ==> Vertex 3 {m}
    262.263960631047,-37.9777711251129,12;  !- X,Y,Z ==> Vertex 4 {m}

  Shading:Building:Detailed,
    Shading Surface 52,      !- Name
    ,                        !- Transmittance Schedule Name
    ,                        !- Number of Vertices
    61.5453541130247,111.39340469395,12,  !- X,Y,Z ==> Vertex 1 {m}
    61.5453541130247,111.39340469395,0,  !- X,Y,Z ==> Vertex 2 {m}
    62.2151594541189,120.278208371797,0,  !- X,Y,Z ==> Vertex 3 {m}
    62.2151594541189,120.278208371797,12;  !- X,Y,Z ==> Vertex 4 {m}

  Shading:Building:Detailed,
    Shading Surface 53,      !- Name
    ,                        !- Transmittance Schedule Name
    ,                        !- Number of Vertices
    43.793506911416,109.727376434349,12,  !- X,Y,Z ==> Vertex 1 {m}
    43.793506911416,109.727376434349,0,  !- X,Y,Z ==> Vertex 2 {m}
    43.9609598341837,112.614936764793,0,  !- X,Y,Z ==> Vertex 3 {m}
    43.9609598341837,112.614936764793,12;  !- X,Y,Z ==> Vertex 4 {m}

  Shading:Building:Detailed,
    Shading Surface 54,      !- Name
    ,                        !- Transmittance Schedule Name
    ,                        !- Number of Vertices
    53.2553023309079,148.154191635511,12,  !- X,Y,Z ==> Vertex 1 {m}
    53.2553023309079,148.154191635511,0,  !- X,Y,Z ==> Vertex 2 {m}
    46.6402533517935,148.709446072952,0,  !- X,Y,Z ==> Vertex 3 {m}
    46.6402533517935,148.709446072952,12;  !- X,Y,Z ==> Vertex 4 {m}

  Shading:Building:Detailed,
    Shading Surface 55,      !- Name
    ,                        !- Transmittance Schedule Name
    ,                        !- Number of Vertices
    29.8093694748901,197.464690795648,12,  !- X,Y,Z ==> Vertex 1 {m}
    28.3022350469968,176.696467188949,12,  !- X,Y,Z ==> Vertex 2 {m}
    25.8739395417896,175.919038242189,12,  !- X,Y,Z ==> Vertex 3 {m}
    26.8787642295243,172.809362313813,12,  !- X,Y,Z ==> Vertex 4 {m}
    22.1898215523298,111.393177965716,12,  !- X,Y,Z ==> Vertex 5 {m}
    43.793506911416,109.727376434349,12,  !- X,Y,Z ==> Vertex 6 {m}
    43.9609598341837,112.614936764793,12,  !- X,Y,Z ==> Vertex 7 {m}
    61.5453541130247,111.39340469395,12,  !- X,Y,Z ==> Vertex 8 {m}
    62.2151594541189,120.278208371797,12,  !- X,Y,Z ==> Vertex 9 {m}
    53.2553023309079,148.154191635511,12,  !- X,Y,Z ==> Vertex 10 {m}
    46.6402533517935,148.709446072952,12,  !- X,Y,Z ==> Vertex 11 {m}
    47.3937987040083,159.038029206959,12,  !- X,Y,Z ==> Vertex 12 {m}
    50.073308288678,158.815927212092,12,  !- X,Y,Z ==> Vertex 13 {m}
    50.6593972726449,166.479070085727,12,  !- X,Y,Z ==> Vertex 14 {m}
    57.2744093764134,168.589258899757,12,  !- X,Y,Z ==> Vertex 15 {m}
    57.609316628861,172.476360992842,12,  !- X,Y,Z ==> Vertex 16 {m}
    62.2147002185298,173.92017876008,12,  !- X,Y,Z ==> Vertex 17 {m}
    62.4658739907183,177.363040452562,12,  !- X,Y,Z ==> Vertex 18 {m}
    64.9778995048933,178.140482377374,12,  !- X,Y,Z ==> Vertex 19 {m}
    65.8151429874778,189.246488558365,12,  !- X,Y,Z ==> Vertex 20 {m}
    63.9729389966589,194.910531492402,12;  !- X,Y,Z ==> Vertex 21 {m}

  Shading:Building:Detailed,
    Shading Surface 56,      !- Name
    ,                        !- Transmittance Schedule Name
    ,                        !- Number of Vertices
    26.8787642295243,172.809362313813,12,  !- X,Y,Z ==> Vertex 1 {m}
    26.8787642295243,172.809362313813,0,  !- X,Y,Z ==> Vertex 2 {m}
    22.1898215523298,111.393177965716,0,  !- X,Y,Z ==> Vertex 3 {m}
    22.1898215523298,111.393177965716,12;  !- X,Y,Z ==> Vertex 4 {m}

  Shading:Building:Detailed,
    Shading Surface 57,      !- Name
    ,                        !- Transmittance Schedule Name
    ,                        !- Number of Vertices
    50.6593972726449,166.479070085727,12,  !- X,Y,Z ==> Vertex 1 {m}
    50.6593972726449,166.479070085727,0,  !- X,Y,Z ==> Vertex 2 {m}
    57.2744093764134,168.589258899757,0,  !- X,Y,Z ==> Vertex 3 {m}
    57.2744093764134,168.589258899757,12;  !- X,Y,Z ==> Vertex 4 {m}

  Shading:Building:Detailed,
    Shading Surface 58,      !- Name
    ,                        !- Transmittance Schedule Name
    ,                        !- Number of Vertices
    50.073308288678,158.815927212092,12,  !- X,Y,Z ==> Vertex 1 {m}
    50.073308288678,158.815927212092,0,  !- X,Y,Z ==> Vertex 2 {m}
    50.6593972726449,166.479070085727,0,  !- X,Y,Z ==> Vertex 3 {m}
    50.6593972726449,166.479070085727,12;  !- X,Y,Z ==> Vertex 4 {m}

  Shading:Building:Detailed,
    Shading Surface 59,      !- Name
    ,                        !- Transmittance Schedule Name
    ,                        !- Number of Vertices
    28.3022350469968,176.696467188949,12,  !- X,Y,Z ==> Vertex 1 {m}
    28.3022350469968,176.696467188949,0,  !- X,Y,Z ==> Vertex 2 {m}
    25.8739395417896,175.919038242189,0,  !- X,Y,Z ==> Vertex 3 {m}
    25.8739395417896,175.919038242189,12;  !- X,Y,Z ==> Vertex 4 {m}

  Shading:Building:Detailed,
    Shading Surface 60,      !- Name
    ,                        !- Transmittance Schedule Name
    ,                        !- Number of Vertices
    46.6402533517935,148.709446072952,12,  !- X,Y,Z ==> Vertex 1 {m}
    46.6402533517935,148.709446072952,0,  !- X,Y,Z ==> Vertex 2 {m}
    47.3937987040083,159.038029206959,0,  !- X,Y,Z ==> Vertex 3 {m}
    47.3937987040083,159.038029206959,12;  !- X,Y,Z ==> Vertex 4 {m}

  Shading:Building:Detailed,
    Shading Surface 61,      !- Name
    ,                        !- Transmittance Schedule Name
    ,                        !- Number of Vertices
    29.8093694748901,197.464690795648,12,  !- X,Y,Z ==> Vertex 1 {m}
    29.8093694748901,197.464690795648,0,  !- X,Y,Z ==> Vertex 2 {m}
    28.3022350469968,176.696467188949,0,  !- X,Y,Z ==> Vertex 3 {m}
    28.3022350469968,176.696467188949,12;  !- X,Y,Z ==> Vertex 4 {m}

  Shading:Building:Detailed,
    Shading Surface 62,      !- Name
    ,                        !- Transmittance Schedule Name
    ,                        !- Number of Vertices
    62.4658739907183,177.363040452562,12,  !- X,Y,Z ==> Vertex 1 {m}
    62.4658739907183,177.363040452562,0,  !- X,Y,Z ==> Vertex 2 {m}
    64.9778995048933,178.140482377374,0,  !- X,Y,Z ==> Vertex 3 {m}
    64.9778995048933,178.140482377374,12;  !- X,Y,Z ==> Vertex 4 {m}

  Shading:Building:Detailed,
    Shading Surface 63,      !- Name
    ,                        !- Transmittance Schedule Name
    ,                        !- Number of Vertices
    57.609316628861,172.476360992842,12,  !- X,Y,Z ==> Vertex 1 {m}
    57.609316628861,172.476360992842,0,  !- X,Y,Z ==> Vertex 2 {m}
    62.2147002185298,173.92017876008,0,  !- X,Y,Z ==> Vertex 3 {m}
    62.2147002185298,173.92017876008,12;  !- X,Y,Z ==> Vertex 4 {m}

  Shading:Building:Detailed,
    Shading Surface 64,      !- Name
    ,                        !- Transmittance Schedule Name
    ,                        !- Number of Vertices
    62.2147002185298,173.92017876008,12,  !- X,Y,Z ==> Vertex 1 {m}
    62.2147002185298,173.92017876008,0,  !- X,Y,Z ==> Vertex 2 {m}
    62.4658739907183,177.363040452562,0,  !- X,Y,Z ==> Vertex 3 {m}
    62.4658739907183,177.363040452562,12;  !- X,Y,Z ==> Vertex 4 {m}

  Shading:Building:Detailed,
    Shading Surface 65,      !- Name
    ,                        !- Transmittance Schedule Name
    ,                        !- Number of Vertices
    65.8151429874778,189.246488558365,12,  !- X,Y,Z ==> Vertex 1 {m}
    65.8151429874778,189.246488558365,0,  !- X,Y,Z ==> Vertex 2 {m}
    63.9729389966589,194.910531492402,0,  !- X,Y,Z ==> Vertex 3 {m}
    63.9729389966589,194.910531492402,12;  !- X,Y,Z ==> Vertex 4 {m}

  Shading:Building:Detailed,
    Shading Surface 66,      !- Name
    ,                        !- Transmittance Schedule Name
    ,                        !- Number of Vertices
    47.3937987040083,159.038029206959,12,  !- X,Y,Z ==> Vertex 1 {m}
    47.3937987040083,159.038029206959,0,  !- X,Y,Z ==> Vertex 2 {m}
    50.073308288678,158.815927212092,0,  !- X,Y,Z ==> Vertex 3 {m}
    50.073308288678,158.815927212092,12;  !- X,Y,Z ==> Vertex 4 {m}

  Shading:Building:Detailed,
    Shading Surface 67,      !- Name
    ,                        !- Transmittance Schedule Name
    ,                        !- Number of Vertices
    63.9729389966589,194.910531492402,0,  !- X,Y,Z ==> Vertex 1 {m}
    65.8151429874778,189.246488558365,0,  !- X,Y,Z ==> Vertex 2 {m}
    64.9778995048933,178.140482377374,0,  !- X,Y,Z ==> Vertex 3 {m}
    62.4658739907183,177.363040452562,0,  !- X,Y,Z ==> Vertex 4 {m}
    62.2147002185298,173.92017876008,0,  !- X,Y,Z ==> Vertex 5 {m}
    57.609316628861,172.476360992842,0,  !- X,Y,Z ==> Vertex 6 {m}
    57.2744093764134,168.589258899757,0,  !- X,Y,Z ==> Vertex 7 {m}
    50.6593972726449,166.479070085727,0,  !- X,Y,Z ==> Vertex 8 {m}
    50.073308288678,158.815927212092,0,  !- X,Y,Z ==> Vertex 9 {m}
    47.3937987040083,159.038029206959,0,  !- X,Y,Z ==> Vertex 10 {m}
    46.6402533517935,148.709446072952,0,  !- X,Y,Z ==> Vertex 11 {m}
    53.2553023309079,148.154191635511,0,  !- X,Y,Z ==> Vertex 12 {m}
    62.2151594541189,120.278208371797,0,  !- X,Y,Z ==> Vertex 13 {m}
    61.5453541130247,111.39340469395,0,  !- X,Y,Z ==> Vertex 14 {m}
    43.9609598341837,112.614936764793,0,  !- X,Y,Z ==> Vertex 15 {m}
    43.793506911416,109.727376434349,0,  !- X,Y,Z ==> Vertex 16 {m}
    22.1898215523298,111.393177965716,0,  !- X,Y,Z ==> Vertex 17 {m}
    26.8787642295243,172.809362313813,0,  !- X,Y,Z ==> Vertex 18 {m}
    25.8739395417896,175.919038242189,0,  !- X,Y,Z ==> Vertex 19 {m}
    28.3022350469968,176.696467188949,0,  !- X,Y,Z ==> Vertex 20 {m}
    29.8093694748901,197.464690795648,0;  !- X,Y,Z ==> Vertex 21 {m}

  Shading:Building:Detailed,
    Shading Surface 68,      !- Name
    ,                        !- Transmittance Schedule Name
    ,                        !- Number of Vertices
    63.9729389966589,194.910531492402,12,  !- X,Y,Z ==> Vertex 1 {m}
    63.9729389966589,194.910531492402,0,  !- X,Y,Z ==> Vertex 2 {m}
    29.8093694748901,197.464690795648,0,  !- X,Y,Z ==> Vertex 3 {m}
    29.8093694748901,197.464690795648,12;  !- X,Y,Z ==> Vertex 4 {m}

  Shading:Building:Detailed,
    Shading Surface 69,      !- Name
    ,                        !- Transmittance Schedule Name
    ,                        !- Number of Vertices
    22.1898215523298,111.393177965716,12,  !- X,Y,Z ==> Vertex 1 {m}
    22.1898215523298,111.393177965716,0,  !- X,Y,Z ==> Vertex 2 {m}
    43.793506911416,109.727376434349,0,  !- X,Y,Z ==> Vertex 3 {m}
    43.793506911416,109.727376434349,12;  !- X,Y,Z ==> Vertex 4 {m}

  Shading:Building:Detailed,
    Shading Surface 70,      !- Name
    ,                        !- Transmittance Schedule Name
    ,                        !- Number of Vertices
    43.9609598341837,112.614936764793,12,  !- X,Y,Z ==> Vertex 1 {m}
    43.9609598341837,112.614936764793,0,  !- X,Y,Z ==> Vertex 2 {m}
    61.5453541130247,111.39340469395,0,  !- X,Y,Z ==> Vertex 3 {m}
    61.5453541130247,111.39340469395,12;  !- X,Y,Z ==> Vertex 4 {m}