  ConvergenceLimits,
    0,                       !- Minimum System Timestep {minutes}
    25;                      !- Maximum HVAC Iterations

  Version,23.1;

  Timestep,1;

  LifeCycleCost:Parameters,
    Life Cycle Cost Parameters,  !- Name
    EndOfYear,               !- Discounting Convention
    ConstantDollar,          !- Inflation Approach
    0.03,                    !- Real Discount Rate
    ,                        !- Nominal Discount Rate
    ,                        !- Inflation
    ,                        !- Base Date Month
    2011,                    !- Base Date Year
    ,                        !- Service Date Month
    2011,                    !- Service Date Year
    25,                      !- Length of Study Period in Years
    ,                        !- Tax rate
    None;                    !- Depreciation Method

  LifeCycleCost:UsePriceEscalation,
    U.S. Avg  Commercial-Electricity,  !- LCC Price Escalation Name
    Electricity,             !- Resource
    2011,                    !- Escalation Start Year
    January,                 !- Escalation Start Month
    0.9838,                  !- Year 1 Escalation
    0.9730,                  !- Year 2 Escalation
    0.9632,                  !- Year 3 Escalation
    0.9611,                  !- Year 4 Escalation
    0.9571,                  !- Year 5 Escalation
    0.9553,                  !- Year 6 Escalation
    0.9539,                  !- Year 7 Escalation
    0.9521,                  !- Year 8 Escalation
    0.9546,                  !- Year 9 Escalation
    0.9550,                  !- <none>
    0.9553,                  !- <none>
    0.9564,                  !- <none>
    0.9575,                  !- <none>
    0.9596,                  !- <none>
    0.9618,                  !- <none>
    0.9614,                  !- <none>
    0.9618,                  !- <none>
    0.9618,                  !- <none>
    0.9593,                  !- <none>
    0.9589,                  !- <none>
    0.9607,                  !- <none>
    0.9625,                  !- <none>
    0.9650,                  !- <none>
    0.9708,                  !- <none>
    0.9751,                  !- <none>
    0.9762,                  !- <none>
    0.9766,                  !- <none>
    0.9766,                  !- <none>
    0.9769,                  !- <none>
    0.9773;                  !- <none>

  LifeCycleCost:UsePriceEscalation,
    U.S. Avg  Commercial-Distillate Oil,  !- LCC Price Escalation Name
    FuelOilNo1,              !- Resource
    2011,                    !- Escalation Start Year
    January,                 !- Escalation Start Month
    0.9714,                  !- Year 1 Escalation
    0.9730,                  !- Year 2 Escalation
    0.9942,                  !- Year 3 Escalation
    1.0164,                  !- Year 4 Escalation
    1.0541,                  !- Year 5 Escalation
    1.0928,                  !- Year 6 Escalation
    1.1267,                  !- Year 7 Escalation
    1.1580,                  !- Year 8 Escalation
    1.1792,                  !- Year 9 Escalation
    1.1967,                  !- <none>
    1.2200,                  !- <none>
    1.2333,                  !- <none>
    1.2566,                  !- <none>
    1.2709,                  !- <none>
    1.2826,                  !- <none>
    1.2985,                  !- <none>
    1.3102,                  !- <none>
    1.3250,                  !- <none>
    1.3261,                  !- <none>
    1.3282,                  !- <none>
    1.3324,                  !- <none>
    1.3356,                  !- <none>
    1.3431,                  !- <none>
    1.3510,                  !- <none>
    1.3568,                  !- <none>
    1.3606,                  !- <none>
    1.3637,                  !- <none>
    1.3674,                  !- <none>
    1.3706,                  !- <none>
    1.3743;                  !- <none>

  LifeCycleCost:UsePriceEscalation,
    U.S. Avg  Commercial-Residual Oil,  !- LCC Price Escalation Name
    FuelOilNo2,              !- Resource
    2011,                    !- Escalation Start Year
    January,                 !- Escalation Start Month
    0.8469,                  !- Year 1 Escalation
    0.8257,                  !- Year 2 Escalation
    0.8681,                  !- Year 3 Escalation
    0.8988,                  !- Year 4 Escalation
    0.9289,                  !- Year 5 Escalation
    0.9604,                  !- Year 6 Escalation
    0.9897,                  !- Year 7 Escalation
    1.0075,                  !- Year 8 Escalation
    1.0314,                  !- Year 9 Escalation
    1.0554,                  !- <none>
    1.0861,                  !- <none>
    1.1278,                  !- <none>
    1.1497,                  !- <none>
    1.1620,                  !- <none>
    1.1743,                  !- <none>
    1.1852,                  !- <none>
    1.1948,                  !- <none>
    1.2037,                  !- <none>
    1.2071,                  !- <none>
    1.2119,                  !- <none>
    1.2139,                  !- <none>
    1.2194,                  !- <none>
    1.2276,                  !- <none>
    1.2365,                  !- <none>
    1.2420,                  !- <none>
    1.2461,                  !- <none>
    1.2509,                  !- <none>
    1.2550,                  !- <none>
    1.2591,                  !- <none>
    1.2638;                  !- <none>

  LifeCycleCost:UsePriceEscalation,
    U.S. Avg  Commercial-Natural gas,  !- LCC Price Escalation Name
    NaturalGas,              !- Resource
    2011,                    !- Escalation Start Year
    January,                 !- Escalation Start Month
    0.9823,                  !- Year 1 Escalation
    0.9557,                  !- Year 2 Escalation
    0.9279,                  !- Year 3 Escalation
    0.9257,                  !- Year 4 Escalation
    0.9346,                  !- Year 5 Escalation
    0.9412,                  !- Year 6 Escalation
    0.9512,                  !- Year 7 Escalation
    0.9645,                  !- Year 8 Escalation
    0.9856,                  !- Year 9 Escalation
    1.0067,                  !- <none>
    1.0222,                  !- <none>
    1.0410,                  !- <none>
    1.0610,                  !- <none>
    1.0787,                  !- <none>
    1.0942,                  !- <none>
    1.1098,                  !- <none>
    1.1220,                  !- <none>
    1.1308,                  !- <none>
    1.1386,                  !- <none>
    1.1486,                  !- <none>
    1.1619,                  !- <none>
    1.1763,                  !- <none>
    1.1918,                  !- <none>
    1.2118,                  !- <none>
    1.2284,                  !- <none>
    1.2439,                  !- <none>
    1.2605,                  !- <none>
    1.2772,                  !- <none>
    1.2938,                  !- <none>
    1.3115;                  !- <none>

  LifeCycleCost:UsePriceEscalation,
    U.S. Avg  Commercial-Coal,  !- LCC Price Escalation Name
    Coal,                    !- Resource
    2011,                    !- Escalation Start Year
    January,                 !- Escalation Start Month
    0.9970,                  !- Year 1 Escalation
    1.0089,                  !- Year 2 Escalation
    1.0089,                  !- Year 3 Escalation
    0.9941,                  !- Year 4 Escalation
    0.9941,                  !- Year 5 Escalation
    1.0000,                  !- Year 6 Escalation
    1.0030,                  !- Year 7 Escalation
    1.0059,                  !- Year 8 Escalation
    1.0089,                  !- Year 9 Escalation
    1.0119,                  !- <none>
    1.0148,                  !- <none>
    1.0178,                  !- <none>
    1.0208,                  !- <none>
    1.0267,                  !- <none>
    1.0297,                  !- <none>
    1.0356,                  !- <none>
    1.0415,                  !- <none>
    1.0534,                  !- <none>
    1.0564,                  !- <none>
    1.0593,                  !- <none>
    1.0653,                  !- <none>
    1.0712,                  !- <none>
    1.0742,                  !- <none>
    1.0801,                  !- <none>
    1.0831,                  !- <none>
    1.0831,                  !- <none>
    1.0861,                  !- <none>
    1.0890,                  !- <none>
    1.0920,                  !- <none>
    1.0950;                  !- <none>

  Building,
    bld_14,                  !- Name
    ,                        !- North Axis {deg}
    City,                    !- Terrain
    ,                        !- Loads Convergence Tolerance Value {W}
    ,                        !- Temperature Convergence Tolerance Value {deltaC}
    ,                        !- Solar Distribution
    ,                        !- Maximum Number of Warmup Days
    ;                        !- Minimum Number of Warmup Days

  Shading:Building:Detailed,
    Shading Surface 1,       !- Name
    ,                        !- Transmittance Schedule Name
    ,                        !- Number of Vertices
    -166.460929594067,33.9862683837566,12,  !- X,Y,Z ==> Vertex 1 {m}
    -167.047491088486,15.2171406092882,12,  !- X,Y,Z ==> Vertex 2 {m}
    -158.422988875676,14.9948274589429,12,  !- X,Y,Z ==> Vertex 3 {m}
    -157.836449638057,33.7639559231971,12;  !- X,Y,Z ==> Vertex 4 {m}

  Shading:Building:Detailed,
    Shading Surface 2,       !- Name
    ,                        !- Transmittance Schedule Name
    ,                        !- Number of Vertices
    -157.836449638057,33.7639559231971,12,  !- X,Y,Z ==> Vertex 1 {m}
    -157.836449638057,33.7639559231971,0,  !- X,Y,Z ==> Vertex 2 {m}
    -166.460929594067,33.9862683837566,0,  !- X,Y,Z ==> Vertex 3 {m}
    -166.460929594067,33.9862683837566,12;  !- X,Y,Z ==> Vertex 4 {m}

  Shading:Building:Detailed,
    Shading Surface 3,       !- Name
    ,                        !- Transmittance Schedule Name
    ,                        !- Number of Vertices
    -166.460929594067,33.9862683837566,12,  !- X,Y,Z ==> Vertex 1 {m}
    -166.460929594067,33.9862683837566,0,  !- X,Y,Z ==> Vertex 2 {m}
    -167.047491088486,15.2171406092882,0,  !- X,Y,Z ==> Vertex 3 {m}
    -167.047491088486,15.2171406092882,12;  !- X,Y,Z ==> Vertex 4 {m}

  Shading:Building:Detailed,
    Shading Surface 4,       !- Name
    ,                        !- Transmittance Schedule Name
    ,                        !- Number of Vertices
    -158.422988875676,14.9948274589429,12,  !- X,Y,Z ==> Vertex 1 {m}
    -158.422988875676,14.9948274589429,0,  !- X,Y,Z ==> Vertex 2 {m}
    -157.836449638057,33.7639559231971,0,  !- X,Y,Z ==> Vertex 3 {m}
    -157.836449638057,33.7639559231971,12;  !- X,Y,Z ==> Vertex 4 {m}

  Shading:Building:Detailed,
    Shading Surface 5,       !- Name
    ,                        !- Transmittance Schedule Name
    ,                        !- Number of Vertices
    -157.836449638057,33.7639559231971,0,  !- X,Y,Z ==> Vertex 1 {m}
    -158.422988875676,14.9948274589429,0,  !- X,Y,Z ==> Vertex 2 {m}
    -167.047491088486,15.2171406092882,0,  !- X,Y,Z ==> Vertex 3 {m}
    -166.460929594067,33.9862683837566,0;  !- X,Y,Z ==> Vertex 4 {m}

  Shading:Building:Detailed,
    Shading Surface 6,       !- Name
    ,                        !- Transmittance Schedule Name
    ,                        !- Number of Vertices
    -167.047491088486,15.2171406092882,12,  !- X,Y,Z ==> Vertex 1 {m}
    -167.047491088486,15.2171406092882,0,  !- X,Y,Z ==> Vertex 2 {m}
    -158.422988875676,14.9948274589429,0,  !- X,Y,Z ==> Vertex 3 {m}
    -158.422988875676,14.9948274589429,12;  !- X,Y,Z ==> Vertex 4 {m}

  Shading:Building:Detailed,
    Shading Surface 33,      !- Name
    ,                        !- Transmittance Schedule Name
    ,                        !- Number of Vertices
    33.9119682165934,-0.110980874937077,12,  !- X,Y,Z ==> Vertex 1 {m}
    33.9119682165934,-0.110980874937077,0,  !- X,Y,Z ==> Vertex 2 {m}
    41.9503613231508,-0.221998919280573,0,  !- X,Y,Z ==> Vertex 3 {m}
    41.9503613231508,-0.221998919280573,12;  !- X,Y,Z ==> Vertex 4 {m}

  Shading:Building:Detailed,
    Shading Surface 34,      !- Name
    ,                        !- Transmittance Schedule Name
    ,                        !- Number of Vertices
    41.9503613231508,-0.221998919280573,12,  !- X,Y,Z ==> Vertex 1 {m}
    41.9503613231508,-0.221998919280573,0,  !- X,Y,Z ==> Vertex 2 {m}
    42.3688935648464,22.7674245345848,0,  !- X,Y,Z ==> Vertex 3 {m}
    42.3688935648464,22.7674245345848,12;  !- X,Y,Z ==> Vertex 4 {m}

  Shading:Building:Detailed,
    Shading Surface 35,      !- Name
    ,                        !- Transmittance Schedule Name
    ,                        !- Number of Vertices
    42.3688935648464,22.7674245345848,0,  !- X,Y,Z ==> Vertex 1 {m}
    41.9503613231508,-0.221998919280573,0,  !- X,Y,Z ==> Vertex 2 {m}
    33.9119682165934,-0.110980874937077,0,  !- X,Y,Z ==> Vertex 3 {m}
    34.2467928911095,22.8784417246202,0;  !- X,Y,Z ==> Vertex 4 {m}

  Shading:Building:Detailed,
    Shading Surface 36,      !- Name
    ,                        !- Transmittance Schedule Name
    ,                        !- Number of Vertices
    34.2467928911095,22.8784417246202,12,  !- X,Y,Z ==> Vertex 1 {m}
    34.2467928911095,22.8784417246202,0,  !- X,Y,Z ==> Vertex 2 {m}
    33.9119682165934,-0.110980874937077,0,  !- X,Y,Z ==> Vertex 3 {m}
    33.9119682165934,-0.110980874937077,12;  !- X,Y,Z ==> Vertex 4 {m}

  Shading:Building:Detailed,
    Shading Surface 37,      !- Name
    ,                        !- Transmittance Schedule Name
    ,                        !- Number of Vertices
    42.3688935648464,22.7674245345848,12,  !- X,Y,Z ==> Vertex 1 {m}
    42.3688935648464,22.7674245345848,0,  !- X,Y,Z ==> Vertex 2 {m}
    34.2467928911095,22.8784417246202,0,  !- X,Y,Z ==> Vertex 3 {m}
    34.2467928911095,22.8784417246202,12;  !- X,Y,Z ==> Vertex 4 {m}

  Shading:Building:Detailed,
    Shading Surface 38,      !- Name
    ,                        !- Transmittance Schedule Name
    ,                        !- Number of Vertices
    34.2467928911095,22.8784417246202,12,  !- X,Y,Z ==> Vertex 1 {m}
    33.9119682165934,-0.110980874937077,12,  !- X,Y,Z ==> Vertex 2 {m}
    41.9503613231508,-0.221998919280573,12,  !- X,Y,Z ==> Vertex 3 {m}
    42.3688935648464,22.7674245345848,12;  !- X,Y,Z ==> Vertex 4 {m}

  Shading:Building:Detailed,
    Shading Surface 39,      !- Name
    ,                        !- Transmittance Schedule Name
    ,                        !- Number of Vertices
    76.1145011313484,-92.9568171041664,12,  !- X,Y,Z ==> Vertex 1 {m}
    76.1145011313484,-92.9568171041664,0,  !- X,Y,Z ==> Vertex 2 {m}
    75.6959278386483,-102.396920282687,0,  !- X,Y,Z ==> Vertex 3 {m}
    75.6959278386483,-102.396920282687,12;  !- X,Y,Z ==> Vertex 4 {m}

  Shading:Building:Detailed,
    Shading Surface 40,      !- Name
    ,                        !- Transmittance Schedule Name
    ,                        !- Number of Vertices
    76.1145011313484,-92.9568171041664,12,  !- X,Y,Z ==> Vertex 1 {m}
    75.6959278386483,-102.396920282687,12,  !- X,Y,Z ==> Vertex 2 {m}
    70.3369219486112,-102.174854156858,12,  !- X,Y,Z ==> Vertex 3 {m}
    69.4997571401822,-120.943999429248,12,  !- X,Y,Z ==> Vertex 4 {m}
    73.1003480851973,-121.055024083686,12,  !- X,Y,Z ==> Vertex 5 {m}
    72.0957383410034,-141.823250389978,12,  !- X,Y,Z ==> Vertex 6 {m}
    83.986098815779,-142.378422590252,12,  !- X,Y,Z ==> Vertex 7 {m}
    84.6558214243139,-128.940157320516,12,  !- X,Y,Z ==> Vertex 8 {m}
    104.333497911605,-129.828381288495,12,  !- X,Y,Z ==> Vertex 9 {m}
    104.919456763088,-117.056474984594,12,  !- X,Y,Z ==> Vertex 10 {m}
    82.7297770240464,-116.16828161779,12,  !- X,Y,Z ==> Vertex 11 {m}
    83.7343285152349,-93.2899132590059,12;  !- X,Y,Z ==> Vertex 12 {m}

  Shading:Building:Detailed,
    Shading Surface 41,      !- Name
    ,                        !- Transmittance Schedule Name
    ,                        !- Number of Vertices
    83.7343285152349,-93.2899132590059,0,  !- X,Y,Z ==> Vertex 1 {m}
    82.7297770240464,-116.16828161779,0,  !- X,Y,Z ==> Vertex 2 {m}
    104.919456763088,-117.056474984594,0,  !- X,Y,Z ==> Vertex 3 {m}
    104.333497911605,-129.828381288495,0,  !- X,Y,Z ==> Vertex 4 {m}
    84.6558214243139,-128.940157320516,0,  !- X,Y,Z ==> Vertex 5 {m}
    83.986098815779,-142.378422590252,0,  !- X,Y,Z ==> Vertex 6 {m}
    72.0957383410034,-141.823250389978,0,  !- X,Y,Z ==> Vertex 7 {m}
    73.1003480851973,-121.055024083686,0,  !- X,Y,Z ==> Vertex 8 {m}
    69.4997571401822,-120.943999429248,0,  !- X,Y,Z ==> Vertex 9 {m}
    70.3369219486112,-102.174854156858,0,  !- X,Y,Z ==> Vertex 10 {m}
    75.6959278386483,-102.396920282687,0,  !- X,Y,Z ==> Vertex 11 {m}
    76.1145011313484,-92.9568171041664,0;  !- X,Y,Z ==> Vertex 12 {m}

  Shading:Building:Detailed,
    Shading Surface 42,      !- Name
    ,                        !- Transmittance Schedule Name
    ,                        !- Number of Vertices
    73.1003480851973,-121.055024083686,12,  !- X,Y,Z ==> Vertex 1 {m}
    73.1003480851973,-121.055024083686,0,  !- X,Y,Z ==> Vertex 2 {m}
    72.0957383410034,-141.823250389978,0,  !- X,Y,Z ==> Vertex 3 {m}
    72.0957383410034,-141.823250389978,12;  !- X,Y,Z ==> Vertex 4 {m}

  Shading:Building:Detailed,
    Shading Surface 43,      !- Name
    ,                        !- Transmittance Schedule Name
    ,                        !- Number of Vertices
    72.0957383410034,-141.823250389978,12,  !- X,Y,Z ==> Vertex 1 {m}
    72.0957383410034,-141.823250389978,0,  !- X,Y,Z ==> Vertex 2 {m}
    83.986098815779,-142.378422590252,0,  !- X,Y,Z ==> Vertex 3 {m}
    83.986098815779,-142.378422590252,12;  !- X,Y,Z ==> Vertex 4 {m}

  Shading:Building:Detailed,
    Shading Surface 44,      !- Name
    ,                        !- Transmittance Schedule Name
    ,                        !- Number of Vertices
    83.986098815779,-142.378422590252,12,  !- X,Y,Z ==> Vertex 1 {m}
    83.986098815779,-142.378422590252,0,  !- X,Y,Z ==> Vertex 2 {m}
    84.6558214243139,-128.940157320516,0,  !- X,Y,Z ==> Vertex 3 {m}
    84.6558214243139,-128.940157320516,12;  !- X,Y,Z ==> Vertex 4 {m}

  Shading:Building:Detailed,
    Shading Surface 45,      !- Name
    ,                        !- Transmittance Schedule Name
    ,                        !- Number of Vertices
    104.333497911605,-129.828381288495,12,  !- X,Y,Z ==> Vertex 1 {m}
    104.333497911605,-129.828381288495,0,  !- X,Y,Z ==> Vertex 2 {m}
    104.919456763088,-117.056474984594,0,  !- X,Y,Z ==> Vertex 3 {m}
    104.919456763088,-117.056474984594,12;  !- X,Y,Z ==> Vertex 4 {m}

  Shading:Building:Detailed,
    Shading Surface 46,      !- Name
    ,                        !- Transmittance Schedule Name
    ,                        !- Number of Vertices
    82.7297770240464,-116.16828161779,12,  !- X,Y,Z ==> Vertex 1 {m}
    82.7297770240464,-116.16828161779,0,  !- X,Y,Z ==> Vertex 2 {m}
    83.7343285152349,-93.2899132590059,0,  !- X,Y,Z ==> Vertex 3 {m}
    83.7343285152349,-93.2899132590059,12;  !- X,Y,Z ==> Vertex 4 {m}

  Shading:Building:Detailed,
    Shading Surface 47,      !- Name
    ,                        !- Transmittance Schedule Name
    ,                        !- Number of Vertices
    104.919456763088,-117.056474984594,12,  !- X,Y,Z ==> Vertex 1 {m}
    104.919456763088,-117.056474984594,0,  !- X,Y,Z ==> Vertex 2 {m}
    82.7297770240464,-116.16828161779,0,  !- X,Y,Z ==> Vertex 3 {m}
    82.7297770240464,-116.16828161779,12;  !- X,Y,Z ==> Vertex 4 {m}

  Shading:Building:Detailed,
    Shading Surface 48,      !- Name
    ,                        !- Transmittance Schedule Name
    ,                        !- Number of Vertices
    83.7343285152349,-93.2899132590059,12,  !- X,Y,Z ==> Vertex 1 {m}
    83.7343285152349,-93.2899132590059,0,  !- X,Y,Z ==> Vertex 2 {m}
    76.1145011313484,-92.9568171041664,0,  !- X,Y,Z ==> Vertex 3 {m}
    76.1145011313484,-92.9568171041664,12;  !- X,Y,Z ==> Vertex 4 {m}

  Shading:Building:Detailed,
    Shading Surface 49,      !- Name
    ,                        !- Transmittance Schedule Name
    ,                        !- Number of Vertices
    84.6558214243139,-128.940157320516,12,  !- X,Y,Z ==> Vertex 1 {m}
    84.6558214243139,-128.940157320516,0,  !- X,Y,Z ==> Vertex 2 {m}
    104.333497911605,-129.828381288495,0,  !- X,Y,Z ==> Vertex 3 {m}
    104.333497911605,-129.828381288495,12;  !- X,Y,Z ==> Vertex 4 {m}

  Shading:Building:Detailed,
    Shading Surface 50,      !- Name
    ,                        !- Transmittance Schedule Name
    ,                        !- Number of Vertices
    69.4997571401822,-120.943999429248,12,  !- X,Y,Z ==> Vertex 1 {m}
    69.4997571401822,-120.943999429248,0,  !- X,Y,Z ==> Vertex 2 {m}
    73.1003480851973,-121.055024083686,0,  !- X,Y,Z ==> Vertex 3 {m}
    73.1003480851973,-121.055024083686,12;  !- X,Y,Z ==> Vertex 4 {m}

  Shading:Building:Detailed,
    Shading Surface 51,      !- Name
    ,                        !- Transmittance Schedule Name
    ,                        !- Number of Vertices
    70.3369219486112,-102.174854156858,12,  !- X,Y,Z ==> Vertex 1 {m}
    70.3369219486112,-102.174854156858,0,  !- X,Y,Z ==> Vertex 2 {m}
    69.4997571401822,-120.943999429248,0,  !- X,Y,Z ==> Vertex 3 {m}
    69.4997571401822,-120.943999429248,12;  !- X,Y,Z ==> Vertex 4 {m}

  Shading:Building:Detailed,
    Shading Surface 52,      !- Name
    ,                        !- Transmittance Schedule Name
    ,                        !- Number of Vertices
    75.6959278386483,-102.396920282687,12,  !- X,Y,Z ==> Vertex 1 {m}
    75.6959278386483,-102.396920282687,0,  !- X,Y,Z ==> Vertex 2 {m}
    70.3369219486112,-102.174854156858,0,  !- X,Y,Z ==> Vertex 3 {m}
    70.3369219486112,-102.174854156858,12;  !- X,Y,Z ==> Vertex 4 {m}

  Shading:Building:Detailed,
    Shading Surface 53,      !- Name
    ,                        !- Transmittance Schedule Name
    ,                        !- Number of Vertices
    -283.435295808451,45.3180104107389,12,  !- X,Y,Z ==> Vertex 1 {m}
    -283.770534656494,37.4327627632276,12,  !- X,Y,Z ==> Vertex 2 {m}
    -272.131689011573,36.9880775468716,12,  !- X,Y,Z ==> Vertex 3 {m}
    -271.796466925217,44.7622657143253,12;  !- X,Y,Z ==> Vertex 4 {m}

  Shading:Building:Detailed,
    Shading Surface 54,      !- Name
    ,                        !- Transmittance Schedule Name
    ,                        !- Number of Vertices
    -271.796466925217,44.7622657143253,12,  !- X,Y,Z ==> Vertex 1 {m}
    -271.796466925217,44.7622657143253,0,  !- X,Y,Z ==> Vertex 2 {m}
    -283.435295808451,45.3180104107389,0,  !- X,Y,Z ==> Vertex 3 {m}
    -283.435295808451,45.3180104107389,12;  !- X,Y,Z ==> Vertex 4 {m}

  Shading:Building:Detailed,
    Shading Surface 55,      !- Name
    ,                        !- Transmittance Schedule Name
    ,                        !- Number of Vertices
    -272.131689011573,36.9880775468716,12,  !- X,Y,Z ==> Vertex 1 {m}
    -272.131689011573,36.9880775468716,0,  !- X,Y,Z ==> Vertex 2 {m}
    -271.796466925217,44.7622657143253,0,  !- X,Y,Z ==> Vertex 3 {m}
    -271.796466925217,44.7622657143253,12;  !- X,Y,Z ==> Vertex 4 {m}

  Shading:Building:Detailed,
    Shading Surface 56,      !- Name
    ,                        !- Transmittance Schedule Name
    ,                        !- Number of Vertices
    -271.796466925217,44.7622657143253,0,  !- X,Y,Z ==> Vertex 1 {m}
    -272.131689011573,36.9880775468716,0,  !- X,Y,Z ==> Vertex 2 {m}
    -283.770534656494,37.4327627632276,0,  !- X,Y,Z ==> Vertex 3 {m}
    -283.435295808451,45.3180104107389,0;  !- X,Y,Z ==> Vertex 4 {m}

  Shading:Building:Detailed,
    Shading Surface 57,      !- Name
    ,                        !- Transmittance Schedule Name
    ,                        !- Number of Vertices
    -283.435295808451,45.3180104107389,12,  !- X,Y,Z ==> Vertex 1 {m}
    -283.435295808451,45.3180104107389,0,  !- X,Y,Z ==> Vertex 2 {m}
    -283.770534656494,37.4327627632276,0,  !- X,Y,Z ==> Vertex 3 {m}
    -283.770534656494,37.4327627632276,12;  !- X,Y,Z ==> Vertex 4 {m}

  Shading:Building:Detailed,
    Shading Surface 58,      !- Name
    ,                        !- Transmittance Schedule Name
    ,                        !- Number of Vertices
    -283.770534656494,37.4327627632276,12,  !- X,Y,Z ==> Vertex 1 {m}
    -283.770534656494,37.4327627632276,0,  !- X,Y,Z ==> Vertex 2 {m}
    -272.131689011573,36.9880775468716,0,  !- X,Y,Z ==> Vertex 3 {m}
    -272.131689011573,36.9880775468716,12;  !- X,Y,Z ==> Vertex 4 {m}

  Shading:Building:Detailed,
    Shading Surface 59,      !- Name
    ,                        !- Transmittance Schedule Name
    ,                        !- Number of Vertices
    -195.096626141436,69.0819445591173,12,  !- X,Y,Z ==> Vertex 1 {m}
    -195.096626141436,69.0819445591173,0,  !- X,Y,Z ==> Vertex 2 {m}
    -203.218674521481,69.0821671564998,0,  !- X,Y,Z ==> Vertex 3 {m}
    -203.218674521481,69.0821671564998,12;  !- X,Y,Z ==> Vertex 4 {m}

  Shading:Building:Detailed,
    Shading Surface 60,      !- Name
    ,                        !- Transmittance Schedule Name
    ,                        !- Number of Vertices
    -195.096626141436,69.0819445591173,0,  !- X,Y,Z ==> Vertex 1 {m}
    -195.096980969457,55.865802911857,0,  !- X,Y,Z ==> Vertex 2 {m}
    -203.219044121271,55.8660255099344,0,  !- X,Y,Z ==> Vertex 3 {m}
    -203.218674521481,69.0821671564998,0;  !- X,Y,Z ==> Vertex 4 {m}

  Shading:Building:Detailed,
    Shading Surface 61,      !- Name
    ,                        !- Transmittance Schedule Name
    ,                        !- Number of Vertices
    -203.219044121271,55.8660255099344,12,  !- X,Y,Z ==> Vertex 1 {m}
    -203.219044121271,55.8660255099344,0,  !- X,Y,Z ==> Vertex 2 {m}
    -195.096980969457,55.865802911857,0,  !- X,Y,Z ==> Vertex 3 {m}
    -195.096980969457,55.865802911857,12;  !- X,Y,Z ==> Vertex 4 {m}

  Shading:Building:Detailed,
    Shading Surface 62,      !- Name
    ,                        !- Transmittance Schedule Name
    ,                        !- Number of Vertices
    -203.218674521481,69.0821671564998,12,  !- X,Y,Z ==> Vertex 1 {m}
    -203.218674521481,69.0821671564998,0,  !- X,Y,Z ==> Vertex 2 {m}
    -203.219044121271,55.8660255099344,0,  !- X,Y,Z ==> Vertex 3 {m}
    -203.219044121271,55.8660255099344,12;  !- X,Y,Z ==> Vertex 4 {m}

  Shading:Building:Detailed,
    Shading Surface 63,      !- Name
    ,                        !- Transmittance Schedule Name
    ,                        !- Number of Vertices
    -203.218674521481,69.0821671564998,12,  !- X,Y,Z ==> Vertex 1 {m}
    -203.219044121271,55.8660255099344,12,  !- X,Y,Z ==> Vertex 2 {m}
    -195.096980969457,55.865802911857,12,  !- X,Y,Z ==> Vertex 3 {m}
    -195.096626141436,69.0819445591173,12;  !- X,Y,Z ==> Vertex 4 {m}

  Shading:Building:Detailed,
    Shading Surface 64,      !- Name
    ,                        !- Transmittance Schedule Name
    ,                        !- Number of Vertices
    -195.096980969457,55.865802911857,12,  !- X,Y,Z ==> Vertex 1 {m}
    -195.096980969457,55.865802911857,0,  !- X,Y,Z ==> Vertex 2 {m}
    -195.096626141436,69.0819445591173,0,  !- X,Y,Z ==> Vertex 3 {m}
    -195.096626141436,69.0819445591173,12;  !- X,Y,Z ==> Vertex 4 {m}

  Shading:Building:Detailed,
    Shading Surface 65,      !- Name
    ,                        !- Transmittance Schedule Name
    ,                        !- Number of Vertices
    -271.042296484967,60.199579242046,12,  !- X,Y,Z ==> Vertex 1 {m}
    -271.042296484967,60.199579242046,0,  !- X,Y,Z ==> Vertex 2 {m}
    -279.750482708425,60.1999092651435,0,  !- X,Y,Z ==> Vertex 3 {m}
    -279.750482708425,60.1999092651435,12;  !- X,Y,Z ==> Vertex 4 {m}

  Shading:Building:Detailed,
    Shading Surface 66,      !- Name
    ,                        !- Transmittance Schedule Name
    ,                        !- Number of Vertices
    -279.750482708425,60.1999092651435,12,  !- X,Y,Z ==> Vertex 1 {m}
    -279.750880333766,49.8713281035315,12,  !- X,Y,Z ==> Vertex 2 {m}
    -271.04268173236,49.8709980795255,12,  !- X,Y,Z ==> Vertex 3 {m}
    -271.042296484967,60.199579242046,12;  !- X,Y,Z ==> Vertex 4 {m}

  Shading:Building:Detailed,
    Shading Surface 67,      !- Name
    ,                        !- Transmittance Schedule Name
    ,                        !- Number of Vertices
    -271.04268173236,49.8709980795255,12,  !- X,Y,Z ==> Vertex 1 {m}
    -271.04268173236,49.8709980795255,0,  !- X,Y,Z ==> Vertex 2 {m}
    -271.042296484967,60.199579242046,0,  !- X,Y,Z ==> Vertex 3 {m}
    -271.042296484967,60.199579242046,12;  !- X,Y,Z ==> Vertex 4 {m}

  Shading:Building:Detailed,
    Shading Surface 68,      !- Name
    ,                        !- Transmittance Schedule Name
    ,                        !- Number of Vertices
    -279.750482708425,60.1999092651435,12,  !- X,Y,Z ==> Vertex 1 {m}
    -279.750482708425,60.1999092651435,0,  !- X,Y,Z ==> Vertex 2 {m}
    -279.750880333766,49.8713281035315,0,  !- X,Y,Z ==> Vertex 3 {m}
    -279.750880333766,49.8713281035315,12;  !- X,Y,Z ==> Vertex 4 {m}

  Shading:Building:Detailed,
    Shading Surface 69,      !- Name
    ,                        !- Transmittance Schedule Name
    ,                        !- Number of Vertices
    -279.750880333766,49.8713281035315,12,  !- X,Y,Z ==> Vertex 1 {m}
    -279.750880333766,49.8713281035315,0,  !- X,Y,Z ==> Vertex 2 {m}
    -271.04268173236,49.8709980795255,0,  !- X,Y,Z ==> Vertex 3 {m}
    -271.04268173236,49.8709980795255,12;  !- X,Y,Z ==> Vertex 4 {m}

  Shading:Building:Detailed,
    Shading Surface 70,      !- Name
    ,                        !- Transmittance Schedule Name
    ,                        !- Number of Vertices
    -271.042296484967,60.199579242046,0,  !- X,Y,Z ==> Vertex 1 {m}
    -271.04268173236,49.8709980795255,0,  !- X,Y,Z ==> Vertex 2 {m}