    ConvergenceLimits,
      0,                       !- Minimum System Timestep {minutes}
      25;                      !- Maximum HVAC Iterations
    
Version,
  22.2;                                   !- Version Identifier

Timestep,
  1;                                      !- Number of Timesteps per Hour

LifeCycleCost:Parameters,
  Life Cycle Cost Parameters,             !- Name
  EndOfYear,                              !- Discounting Convention
  ConstantDollar,                         !- Inflation Approach
  0.03,                                   !- Real Discount Rate
  ,                                       !- Nominal Discount Rate
  ,                                       !- Inflation
  ,                                       !- Base Date Month
  2011,                                   !- Base Date Year
  ,                                       !- Service Date Month
  2011,                                   !- Service Date Year
  25,                                     !- Length of Study Period in Years
  ,                                       !- Tax rate
  None;                                   !- Depreciation Method

LifeCycleCost:UsePriceEscalation,
  U.S. Avg  Commercial-Electricity,       !- Name
  Electricity,                            !- Resource
  2011,                                   !- Escalation Start Year
  January,                                !- Escalation Start Month
  0.9838,                                 !- Year Escalation 1
  0.9730,                                 !- Year Escalation 2
  0.9632,                                 !- Year Escalation 3
  0.9611,                                 !- Year Escalation 4
  0.9571,                                 !- Year Escalation 5
  0.9553,                                 !- Year Escalation 6
  0.9539,                                 !- Year Escalation 7
  0.9521,                                 !- Year Escalation 8
  0.9546,                                 !- Year Escalation 9
  0.9550,                                 !- Year Escalation 10
  0.9553,                                 !- Year Escalation 11
  0.9564,                                 !- Year Escalation 12
  0.9575,                                 !- Year Escalation 13
  0.9596,                                 !- Year Escalation 14
  0.9618,                                 !- Year Escalation 15
  0.9614,                                 !- Year Escalation 16
  0.9618,                                 !- Year Escalation 17
  0.9618,                                 !- Year Escalation 18
  0.9593,                                 !- Year Escalation 19
  0.9589,                                 !- Year Escalation 20
  0.9607,                                 !- Year Escalation 21
  0.9625,                                 !- Year Escalation 22
  0.9650,                                 !- Year Escalation 23
  0.9708,                                 !- Year Escalation 24
  0.9751,                                 !- Year Escalation 25
  0.9762,                                 !- Year Escalation 26
  0.9766,                                 !- Year Escalation 27
  0.9766,                                 !- Year Escalation 28
  0.9769,                                 !- Year Escalation 29
  0.9773;                                 !- Year Escalation 30

LifeCycleCost:UsePriceEscalation,
  U.S. Avg  Commercial-Distillate Oil,    !- Name
  FuelOilNo1,                             !- Resource
  2011,                                   !- Escalation Start Year
  January,                                !- Escalation Start Month
  0.9714,                                 !- Year Escalation 1
  0.9730,                                 !- Year Escalation 2
  0.9942,                                 !- Year Escalation 3
  1.0164,                                 !- Year Escalation 4
  1.0541,                                 !- Year Escalation 5
  1.0928,                                 !- Year Escalation 6
  1.1267,                                 !- Year Escalation 7
  1.1580,                                 !- Year Escalation 8
  1.1792,                                 !- Year Escalation 9
  1.1967,                                 !- Year Escalation 10
  1.2200,                                 !- Year Escalation 11
  1.2333,                                 !- Year Escalation 12
  1.2566,                                 !- Year Escalation 13
  1.2709,                                 !- Year Escalation 14
  1.2826,                                 !- Year Escalation 15
  1.2985,                                 !- Year Escalation 16
  1.3102,                                 !- Year Escalation 17
  1.3250,                                 !- Year Escalation 18
  1.3261,                                 !- Year Escalation 19
  1.3282,                                 !- Year Escalation 20
  1.3324,                                 !- Year Escalation 21
  1.3356,                                 !- Year Escalation 22
  1.3431,                                 !- Year Escalation 23
  1.3510,                                 !- Year Escalation 24
  1.3568,                                 !- Year Escalation 25
  1.3606,                                 !- Year Escalation 26
  1.3637,                                 !- Year Escalation 27
  1.3674,                                 !- Year Escalation 28
  1.3706,                                 !- Year Escalation 29
  1.3743;                                 !- Year Escalation 30

LifeCycleCost:UsePriceEscalation,
  U.S. Avg  Commercial-Residual Oil,      !- Name
  FuelOilNo2,                             !- Resource
  2011,                                   !- Escalation Start Year
  January,                                !- Escalation Start Month
  0.8469,                                 !- Year Escalation 1
  0.8257,                                 !- Year Escalation 2
  0.8681,                                 !- Year Escalation 3
  0.8988,                                 !- Year Escalation 4
  0.9289,                                 !- Year Escalation 5
  0.9604,                                 !- Year Escalation 6
  0.9897,                                 !- Year Escalation 7
  1.0075,                                 !- Year Escalation 8
  1.0314,                                 !- Year Escalation 9
  1.0554,                                 !- Year Escalation 10
  1.0861,                                 !- Year Escalation 11
  1.1278,                                 !- Year Escalation 12
  1.1497,                                 !- Year Escalation 13
  1.1620,                                 !- Year Escalation 14
  1.1743,                                 !- Year Escalation 15
  1.1852,                                 !- Year Escalation 16
  1.1948,                                 !- Year Escalation 17
  1.2037,                                 !- Year Escalation 18
  1.2071,                                 !- Year Escalation 19
  1.2119,                                 !- Year Escalation 20
  1.2139,                                 !- Year Escalation 21
  1.2194,                                 !- Year Escalation 22
  1.2276,                                 !- Year Escalation 23
  1.2365,                                 !- Year Escalation 24
  1.2420,                                 !- Year Escalation 25
  1.2461,                                 !- Year Escalation 26
  1.2509,                                 !- Year Escalation 27
  1.2550,                                 !- Year Escalation 28
  1.2591,                                 !- Year Escalation 29
  1.2638;                                 !- Year Escalation 30

LifeCycleCost:UsePriceEscalation,
  U.S. Avg  Commercial-Natural gas,       !- Name
  NaturalGas,                             !- Resource
  2011,                                   !- Escalation Start Year
  January,                                !- Escalation Start Month
  0.9823,                                 !- Year Escalation 1
  0.9557,                                 !- Year Escalation 2
  0.9279,                                 !- Year Escalation 3
  0.9257,                                 !- Year Escalation 4
  0.9346,                                 !- Year Escalation 5
  0.9412,                                 !- Year Escalation 6
  0.9512,                                 !- Year Escalation 7
  0.9645,                                 !- Year Escalation 8
  0.9856,                                 !- Year Escalation 9
  1.0067,                                 !- Year Escalation 10
  1.0222,                                 !- Year Escalation 11
  1.0410,                                 !- Year Escalation 12
  1.0610,                                 !- Year Escalation 13
  1.0787,                                 !- Year Escalation 14
  1.0942,                                 !- Year Escalation 15
  1.1098,                                 !- Year Escalation 16
  1.1220,                                 !- Year Escalation 17
  1.1308,                                 !- Year Escalation 18
  1.1386,                                 !- Year Escalation 19
  1.1486,                                 !- Year Escalation 20
  1.1619,                                 !- Year Escalation 21
  1.1763,                                 !- Year Escalation 22
  1.1918,                                 !- Year Escalation 23
  1.2118,                                 !- Year Escalation 24
  1.2284,                                 !- Year Escalation 25
  1.2439,                                 !- Year Escalation 26
  1.2605,                                 !- Year Escalation 27
  1.2772,                                 !- Year Escalation 28
  1.2938,                                 !- Year Escalation 29
  1.3115;                                 !- Year Escalation 30

LifeCycleCost:UsePriceEscalation,
  U.S. Avg  Commercial-Coal,              !- Name
  Coal,                                   !- Resource
  2011,                                   !- Escalation Start Year
  January,                                !- Escalation Start Month
  0.9970,                                 !- Year Escalation 1
  1.0089,                                 !- Year Escalation 2
  1.0089,                                 !- Year Escalation 3
  0.9941,                                 !- Year Escalation 4
  0.9941,                                 !- Year Escalation 5
  1.0000,                                 !- Year Escalation 6
  1.0030,                                 !- Year Escalation 7
  1.0059,                                 !- Year Escalation 8
  1.0089,                                 !- Year Escalation 9
  1.0119,                                 !- Year Escalation 10
  1.0148,                                 !- Year Escalation 11
  1.0178,                                 !- Year Escalation 12
  1.0208,                                 !- Year Escalation 13
  1.0267,                                 !- Year Escalation 14
  1.0297,                                 !- Year Escalation 15
  1.0356,                                 !- Year Escalation 16
  1.0415,                                 !- Year Escalation 17
  1.0534,                                 !- Year Escalation 18
  1.0564,                                 !- Year Escalation 19
  1.0593,                                 !- Year Escalation 20
  1.0653,                                 !- Year Escalation 21
  1.0712,                                 !- Year Escalation 22
  1.0742,                                 !- Year Escalation 23
  1.0801,                                 !- Year Escalation 24
  1.0831,                                 !- Year Escalation 25
  1.0831,                                 !- Year Escalation 26
  1.0861,                                 !- Year Escalation 27
  1.0890,                                 !- Year Escalation 28
  1.0920,                                 !- Year Escalation 29
  1.0950;                                 !- Year Escalation 30

Building,
  bld_7,                                  !- Name
  ,                                       !- North Axis {deg}
  City,                                   !- Terrain
  ,                                       !- Loads Convergence Tolerance Value {W}
  ,                                       !- Temperature Convergence Tolerance Value {deltaC}
  ,                                       !- Solar Distribution
  ,                                       !- Maximum Number of Warmup Days
  ;                                       !- Minimum Number of Warmup Days

Shading:Building:Detailed,
  Shading Surface 1,                      !- Name
  ,                                       !- Transmittance Schedule Name
  ,                                       !- Number of Vertices
  142.26213684058, 259.326460351755, 0,   !- X,Y,Z Vertex 1 {m}
  141.676372718978, 240.557307695889, 0,  !- X,Y,Z Vertex 2 {m}
  133.051861331786, 240.779264684796, 0,  !- X,Y,Z Vertex 3 {m}
  133.637647710222, 259.5484166518, 0;    !- X,Y,Z Vertex 4 {m}

Shading:Building:Detailed,
  Shading Surface 2,                      !- Name
  ,                                       !- Transmittance Schedule Name
  ,                                       !- Number of Vertices
  133.051861331786, 240.779264684796, 12, !- X,Y,Z Vertex 1 {m}
  133.051861331786, 240.779264684796, 0,  !- X,Y,Z Vertex 2 {m}
  141.676372718978, 240.557307695889, 0,  !- X,Y,Z Vertex 3 {m}
  141.676372718978, 240.557307695889, 12; !- X,Y,Z Vertex 4 {m}

Shading:Building:Detailed,
  Shading Surface 3,                      !- Name
  ,                                       !- Transmittance Schedule Name
  ,                                       !- Number of Vertices
  133.637647710222, 259.5484166518, 12,   !- X,Y,Z Vertex 1 {m}
  133.637647710222, 259.5484166518, 0,    !- X,Y,Z Vertex 2 {m}
  133.051861331786, 240.779264684796, 0,  !- X,Y,Z Vertex 3 {m}
  133.051861331786, 240.779264684796, 12; !- X,Y,Z Vertex 4 {m}

Shading:Building:Detailed,
  Shading Surface 4,                      !- Name
  ,                                       !- Transmittance Schedule Name
  ,                                       !- Number of Vertices
  142.26213684058, 259.326460351755, 12,  !- X,Y,Z Vertex 1 {m}
  142.26213684058, 259.326460351755, 0,   !- X,Y,Z Vertex 2 {m}
  133.637647710222, 259.5484166518, 0,    !- X,Y,Z Vertex 3 {m}
  133.637647710222, 259.5484166518, 12;   !- X,Y,Z Vertex 4 {m}

Shading:Building:Detailed,
  Shading Surface 5,                      !- Name
  ,                                       !- Transmittance Schedule Name
  ,                                       !- Number of Vertices
  133.637647710222, 259.5484166518, 12,   !- X,Y,Z Vertex 1 {m}
  133.051861331786, 240.779264684796, 12, !- X,Y,Z Vertex 2 {m}
  141.676372718978, 240.557307695889, 12, !- X,Y,Z Vertex 3 {m}
  142.26213684058, 259.326460351755, 12;  !- X,Y,Z Vertex 4 {m}

Shading:Building:Detailed,
  Shading Surface 6,                      !- Name
  ,                                       !- Transmittance Schedule Name
  ,                                       !- Number of Vertices
  141.676372718978, 240.557307695889, 12, !- X,Y,Z Vertex 1 {m}
  141.676372718978, 240.557307695889, 0,  !- X,Y,Z Vertex 2 {m}
  142.26213684058, 259.326460351755, 0,   !- X,Y,Z Vertex 3 {m}
  142.26213684058, 259.326460351755, 12;  !- X,Y,Z Vertex 4 {m}

Shading:Building:Detailed,
  Shading Surface 62,                     !- Name
  ,                                       !- Transmittance Schedule Name
  ,                                       !- Number of Vertices
  -64.3928371943566, 3.77632405404259, 12, !- X,Y,Z Vertex 1 {m}
  -64.3928371943566, 3.77632405404259, 0, !- X,Y,Z Vertex 2 {m}
  -72.263998830901, 4.22063791772482, 0,  !- X,Y,Z Vertex 3 {m}
  -72.263998830901, 4.22063791772482, 12; !- X,Y,Z Vertex 4 {m}

Shading:Building:Detailed,
  Shading Surface 63,                     !- Name
  ,                                       !- Transmittance Schedule Name
  ,                                       !- Number of Vertices
  -12.1417010401131, -1.44376938368094, 12, !- X,Y,Z Vertex 1 {m}
  -12.1417010401131, -1.44376938368094, 0, !- X,Y,Z Vertex 2 {m}
  -11.7230095116499, 6.1083074862859, 0,  !- X,Y,Z Vertex 3 {m}
  -11.7230095116499, 6.1083074862859, 12; !- X,Y,Z Vertex 4 {m}

Shading:Building:Detailed,
  Shading Surface 64,                     !- Name
  ,                                       !- Transmittance Schedule Name
  ,                                       !- Number of Vertices
  -5.19164864639667, -36.0944853163204, 12, !- X,Y,Z Vertex 1 {m}
  -5.19164864639667, -36.0944853163204, 0, !- X,Y,Z Vertex 2 {m}
  -3.18196327434514, -1.99907864689263, 0, !- X,Y,Z Vertex 3 {m}
  -3.18196327434514, -1.99907864689263, 12; !- X,Y,Z Vertex 4 {m}

Shading:Building:Detailed,
  Shading Surface 65,                     !- Name
  ,                                       !- Transmittance Schedule Name
  ,                                       !- Number of Vertices
  -64.0578469691972, 9.10719940484162, 12, !- X,Y,Z Vertex 1 {m}
  -64.0578469691972, 9.10719940484162, 0, !- X,Y,Z Vertex 2 {m}
  -64.3928371943566, 3.77632405404259, 0, !- X,Y,Z Vertex 3 {m}
  -64.3928371943566, 3.77632405404259, 12; !- X,Y,Z Vertex 4 {m}

Shading:Building:Detailed,
  Shading Surface 66,                     !- Name
  ,                                       !- Transmittance Schedule Name
  ,                                       !- Number of Vertices
  -74.3577655104223, -32.0959482899741, 12, !- X,Y,Z Vertex 1 {m}
  -74.3577655104223, -32.0959482899741, 0, !- X,Y,Z Vertex 2 {m}
  -5.19164864639667, -36.0944853163204, 0, !- X,Y,Z Vertex 3 {m}
  -5.19164864639667, -36.0944853163204, 12; !- X,Y,Z Vertex 4 {m}

Shading:Building:Detailed,
  Shading Surface 67,                     !- Name
  ,                                       !- Transmittance Schedule Name
  ,                                       !- Number of Vertices
  -11.7230095116499, 6.1083074862859, 0,  !- X,Y,Z Vertex 1 {m}
  -12.1417010401131, -1.44376938368094, 0, !- X,Y,Z Vertex 2 {m}
  -3.18196327434514, -1.99907864689263, 0, !- X,Y,Z Vertex 3 {m}
  -5.19164864639667, -36.0944853163204, 0, !- X,Y,Z Vertex 4 {m}
  -74.3577655104223, -32.0959482899741, 0, !- X,Y,Z Vertex 5 {m}
  -72.263998830901, 4.22063791772482, 0,  !- X,Y,Z Vertex 6 {m}
  -64.3928371943566, 3.77632405404259, 0, !- X,Y,Z Vertex 7 {m}
  -64.0578469691972, 9.10719940484162, 0; !- X,Y,Z Vertex 8 {m}

Shading:Building:Detailed,
  Shading Surface 68,                     !- Name
  ,                                       !- Transmittance Schedule Name
  ,                                       !- Number of Vertices
  -64.0578469691972, 9.10719940484162, 12, !- X,Y,Z Vertex 1 {m}
  -64.3928371943566, 3.77632405404259, 12, !- X,Y,Z Vertex 2 {m}
  -72.263998830901, 4.22063791772482, 12, !- X,Y,Z Vertex 3 {m}
  -74.3577655104223, -32.0959482899741, 12, !- X,Y,Z Vertex 4 {m}
  -5.19164864639667, -36.0944853163204, 12, !- X,Y,Z Vertex 5 {m}
  -3.18196327434514, -1.99907864689263, 12, !- X,Y,Z Vertex 6 {m}
  -12.1417010401131, -1.44376938368094, 12, !- X,Y,Z Vertex 7 {m}
  -11.7230095116499, 6.1083074862859, 12; !- X,Y,Z Vertex 8 {m}

Shading:Building:Detailed,
  Shading Surface 69,                     !- Name
  ,                                       !- Transmittance Schedule Name
  ,                                       !- Number of Vertices
  -72.263998830901, 4.22063791772482, 12, !- X,Y,Z Vertex 1 {m}
  -72.263998830901, 4.22063791772482, 0,  !- X,Y,Z Vertex 2 {m}
  -74.3577655104223, -32.0959482899741, 0, !- X,Y,Z Vertex 3 {m}
  -74.3577655104223, -32.0959482899741, 12; !- X,Y,Z Vertex 4 {m}

Shading:Building:Detailed,
  Shading Surface 70,                     !- Name
  ,                                       !- Transmittance Schedule Name
  ,                                       !- Number of Vertices
  -11.7230095116499, 6.1083074862859, 12, !- X,Y,Z Vertex 1 {m}
  -11.7230095116499, 6.1083074862859, 0,  !- X,Y,Z Vertex 2 {m}
  -64.0578469691972, 9.10719940484162, 0, !- X,Y,Z Vertex 3 {m}
  -64.0578469691972, 9.10719940484162, 12; !- X,Y,Z Vertex 4 {m}

Shading:Building:Detailed,
  Shading Surface 71,                     !- Name
  ,                                       !- Transmittance Schedule Name
  ,                                       !- Number of Vertices
  -3.18196327434514, -1.99907864689263, 12, !- X,Y,Z Vertex 1 {m}
  -3.18196327434514, -1.99907864689263, 0, !- X,Y,Z Vertex 2 {m}
  -12.1417010401131, -1.44376938368094, 0, !- X,Y,Z Vertex 3 {m}
  -12.1417010401131, -1.44376938368094, 12; !- X,Y,Z Vertex 4 {m}

Shading:Building:Detailed,
  Shading Surface 72,                     !- Name
  ,                                       !- Transmittance Schedule Name
  ,                                       !- Number of Vertices
  55.1825896881346, -87.2929159574727, 12, !- X,Y,Z Vertex 1 {m}
  55.1825896881346, -87.2929159574727, 0, !- X,Y,Z Vertex 2 {m}
  109.360387204303, -90.6241010800639, 0, !- X,Y,Z Vertex 3 {m}
  109.360387204303, -90.6241010800639, 12; !- X,Y,Z Vertex 4 {m}

Shading:Building:Detailed,
  Shading Surface 73,                     !- Name
  ,                                       !- Transmittance Schedule Name
  ,                                       !- Number of Vertices
  91.6916049295371, -67.0796360982863, 0, !- X,Y,Z Vertex 1 {m}
  91.2730180444977, -74.7427780073906, 0, !- X,Y,Z Vertex 2 {m}
  110.281270611967, -75.9641738766331, 0, !- X,Y,Z Vertex 3 {m}
  109.360387204303, -90.6241010800639, 0, !- X,Y,Z Vertex 4 {m}
  55.1825896881346, -87.2929159574727, 0, !- X,Y,Z Vertex 5 {m}
  56.18731349695, -71.9666351900627, 0,   !- X,Y,Z Vertex 6 {m}
  72.0135562636663, -72.9660351571239, 0, !- X,Y,Z Vertex 7 {m}
  72.4321688900112, -65.8581940980258, 0; !- X,Y,Z Vertex 8 {m}

Shading:Building:Detailed,
  Shading Surface 74,                     !- Name
  ,                                       !- Transmittance Schedule Name
  ,                                       !- Number of Vertices
  91.6916049295371, -67.0796360982863, 12, !- X,Y,Z Vertex 1 {m}
  91.6916049295371, -67.0796360982863, 0, !- X,Y,Z Vertex 2 {m}
  72.4321688900112, -65.8581940980258, 0, !- X,Y,Z Vertex 3 {m}
  72.4321688900112, -65.8581940980258, 12; !- X,Y,Z Vertex 4 {m}

Shading:Building:Detailed,
  Shading Surface 75,                     !- Name
  ,                                       !- Transmittance Schedule Name
  ,                                       !- Number of Vertices
  72.0135562636663, -72.9660351571239, 12, !- X,Y,Z Vertex 1 {m}
  72.0135562636663, -72.9660351571239, 0, !- X,Y,Z Vertex 2 {m}
  56.18731349695, -71.9666351900627, 0,   !- X,Y,Z Vertex 3 {m}
  56.18731349695, -71.9666351900627, 12;  !- X,Y,Z Vertex 4 {m}

Shading:Building:Detailed,
  Shading Surface 76,                     !- Name
  ,                                       !- Transmittance Schedule Name
  ,                                       !- Number of Vertices
  72.4321688900112, -65.8581940980258, 12, !- X,Y,Z Vertex 1 {m}
  72.4321688900112, -65.8581940980258, 0, !- X,Y,Z Vertex 2 {m}
  72.0135562636663, -72.9660351571239, 0, !- X,Y,Z Vertex 3 {m}
  72.0135562636663, -72.9660351571239, 12; !- X,Y,Z Vertex 4 {m}

Shading:Building:Detailed,
  Shading Surface 77,                     !- Name
  ,                                       !- Transmittance Schedule Name
  ,                                       !- Number of Vertices
  56.18731349695, -71.9666351900627, 12,  !- X,Y,Z Vertex 1 {m}
  56.18731349695, -71.9666351900627, 0,   !- X,Y,Z Vertex 2 {m}
  55.1825896881346, -87.2929159574727, 0, !- X,Y,Z Vertex 3 {m}
  55.1825896881346, -87.2929159574727, 12; !- X,Y,Z Vertex 4 {m}

Shading:Building:Detailed,
  Shading Surface 78,                     !- Name
  ,                                       !- Transmittance Schedule Name
  ,                                       !- Number of Vertices
  72.4321688900112, -65.8581940980258, 12, !- X,Y,Z Vertex 1 {m}
  72.0135562636663, -72.9660351571239, 12, !- X,Y,Z Vertex 2 {m}
  56.18731349695, -71.9666351900627, 12,  !- X,Y,Z Vertex 3 {m}
  55.1825896881346, -87.2929159574727, 12, !- X,Y,Z Vertex 4 {m}
  109.360387204303, -90.6241010800639, 12, !- X,Y,Z Vertex 5 {m}
  110.281270611967, -75.9641738766331, 12, !- X,Y,Z Vertex 6 {m}
  91.2730180444977, -74.7427780073906, 12, !- X,Y,Z Vertex 7 {m}
  91.6916049295371, -67.0796360982863, 12; !- X,Y,Z Vertex 8 {m}

Shading:Building:Detailed,
  Shading Surface 79,                     !- Name
  ,                                       !- Transmittance Schedule Name
  ,                                       !- Number of Vertices
  109.360387204303, -90.6241010800639, 12, !- X,Y,Z Vertex 1 {m}
  109.360387204303, -90.6241010800639, 0, !- X,Y,Z Vertex 2 {m}
  110.281270611967, -75.9641738766331, 0, !- X,Y,Z Vertex 3 {m}
  110.281270611967, -75.9641738766331, 12; !- X,Y,Z Vertex 4 {m}

Shading:Building:Detailed,
  Shading Surface 80,                     !- Name
  ,                                       !- Transmittance Schedule Name
  ,                                       !- Number of Vertices
  91.2730180444977, -74.7427780073906, 12, !- X,Y,Z Vertex 1 {m}
  91.2730180444977, -74.7427780073906, 0, !- X,Y,Z Vertex 2 {m}
  91.6916049295371, -67.0796360982863, 0, !- X,Y,Z Vertex 3 {m}
  91.6916049295371, -67.0796360982863, 12; !- X,Y,Z Vertex 4 {m}

Shading:Building:Detailed,
  Shading Surface 81,                     !- Name
  ,                                       !- Transmittance Schedule Name
  ,                                       !- Number of Vertices
  110.281270611967, -75.9641738766331, 12, !- X,Y,Z Vertex 1 {m}
  110.281270611967, -75.9641738766331, 0, !- X,Y,Z Vertex 2 {m}
  91.2730180444977, -74.7427780073906, 0, !- X,Y,Z Vertex 3 {m}
  91.2730180444977, -74.7427780073906, 12; !- X,Y,Z Vertex 4 {m}

Shading:Building:Detailed,
  Shading Surface 100,                    !- Name
  ,                                       !- Transmittance Schedule Name
  ,                                       !- Number of Vertices
  -123.089250341991, 144.823251492654, 12, !- X,Y,Z Vertex 1 {m}
  -124.596821733122, 124.05505959553, 12, !- X,Y,Z Vertex 2 {m}
  -127.025133594432, 123.277681738864, 12, !- X,Y,Z Vertex 3 {m}
  -126.020374334603, 120.167984669589, 12, !- X,Y,Z Vertex 4 {m}
  -130.710609197202, 58.7518989787679, 12, !- X,Y,Z Vertex 5 {m}
  -109.106958894433, 57.0856429174644, 12, !- X,Y,Z Vertex 6 {m}
  -108.939445218221, 59.9731997244695, 12, !- X,Y,Z Vertex 7 {m}
  -91.3550766455476, 58.7512976878478, 12, !- X,Y,Z Vertex 8 {m}
  -90.6850843705725, 67.6360872724365, 12, !- X,Y,Z Vertex 9 {m}
  -99.6443549854708, 95.5122590442634, 12, !- X,Y,Z Vertex 10 {m}
  -106.25939227998, 96.0676526586583, 12, !- X,Y,Z Vertex 11 {m}
  -105.50562961571, 106.39621993791, 12,  !- X,Y,Z Vertex 12 {m}
  -102.826124704919, 106.174061567643, 12, !- X,Y,Z Vertex 13 {m}
  -102.239874489164, 113.83719210995, 12, !- X,Y,Z Vertex 14 {m}
  -95.6248179891573, 115.947241747722, 12, !- X,Y,Z Vertex 15 {m}
  -95.2898289523439, 119.834336794415, 12, !- X,Y,Z Vertex 16 {m}
  -90.6844149861006, 121.278057666932, 12, !- X,Y,Z Vertex 17 {m}
  -90.4331687762504, 124.720914074767, 12, !- X,Y,Z Vertex 18 {m}
  -87.9211269053848, 125.49830314797, 12, !- X,Y,Z Vertex 19 {m}
  -87.0836497525697, 136.604291713651, 12, !- X,Y,Z Vertex 20 {m}
  -88.9257345712181, 142.268373406577, 12; !- X,Y,Z Vertex 21 {m}

Shading:Building:Detailed,
  Shading Surface 101,                    !- Name
  ,                                       !- Transmittance Schedule Name
  ,                                       !- Number of Vertices
  -126.020374334603, 120.167984669589, 12, !- X,Y,Z Vertex 1 {m}
  -126.020374334603, 120.167984669589, 0, !- X,Y,Z Vertex 2 {m}
  -130.710609197202, 58.7518989787679, 0, !- X,Y,Z Vertex 3 {m}
  -130.710609197202, 58.7518989787679, 12; !- X,Y,Z Vertex 4 {m}

Shading:Building:Detailed,
  Shading Surface 102,                    !- Name
  ,                                       !- Transmittance Schedule Name
  ,                                       !- Number of Vertices
  -90.6850843705725, 67.6360872724365, 12, !- X,Y,Z Vertex 1 {m}
  -90.6850843705725, 67.6360872724365, 0, !- X,Y,Z Vertex 2 {m}
  -99.6443549854708, 95.5122590442634, 0, !- X,Y,Z Vertex 3 {m}
  -99.6443549854708, 95.5122590442634, 12; !- X,Y,Z Vertex 4 {m}

Shading:Building:Detailed,
  Shading Surface 103,                    !- Name
  ,                                       !- Transmittance Schedule Name
  ,                                       !- Number of Vertices
  -95.6248179891573, 115.947241747722, 12, !- X,Y,Z Vertex 1 {m}
  -95.6248179891573, 115.947241747722, 0, !- X,Y,Z Vertex 2 {m}
  -95.2898289523439, 119.834336794415, 0, !- X,Y,Z Vertex 3 {m}
  -95.2898289523439, 119.834336794415, 12; !- X,Y,Z Vertex 4 {m}

Shading:Building:Detailed,
  Shading Surface 104,                    !- Name
  ,                                       !- Transmittance Schedule Name
  ,                                       !- Number of Vertices
  -123.089250341991, 144.823251492654, 12, !- X,Y,Z Vertex 1 {m}
  -123.089250341991, 144.823251492654, 0, !- X,Y,Z Vertex 2 {m}
  -124.596821733122, 124.05505959553, 0,  !- X,Y,Z Vertex 3 {m}
  -124.596821733122, 124.05505959553, 12; !- X,Y,Z Vertex 4 {m}

Shading:Building:Detailed,
  Shading Surface 82,                     !- Name
  ,                                       !- Transmittance Schedule Name
  ,                                       !- Number of Vertices
  -109.106958894433, 57.0856429174644, 12, !- X,Y,Z Vertex 1 {m}
  -109.106958894433, 57.0856429174644, 0, !- X,Y,Z Vertex 2 {m}
  -108.939445218221, 59.9731997244695, 0, !- X,Y,Z Vertex 3 {m}
  -108.939445218221, 59.9731997244695, 12; !- X,Y,Z Vertex 4 {m}

Shading:Building:Detailed,