    ConvergenceLimits,
      0,                       !- Minimum System Timestep {minutes}
      25;                      !- Maximum HVAC Iterations
    
Version,
  22.2;                                   !- Version Identifier

Timestep,
  1;                                      !- Number of Timesteps per Hour

LifeCycleCost:Parameters,
  Life Cycle Cost Parameters,             !- Name
  EndOfYear,                              !- Discounting Convention
  ConstantDollar,                         !- Inflation Approach
  0.03,                                   !- Real Discount Rate
  ,                                       !- Nominal Discount Rate
  ,                                       !- Inflation
  ,                                       !- Base Date Month
  2011,                                   !- Base Date Year
  ,                                       !- Service Date Month
  2011,                                   !- Service Date Year
  25,                                     !- Length of Study Period in Years
  ,                                       !- Tax rate
  None;                                   !- Depreciation Method

LifeCycleCost:UsePriceEscalation,
  U.S. Avg  Commercial-Electricity,       !- Name
  Electricity,                            !- Resource
  2011,                                   !- Escalation Start Year
  January,                                !- Escalation Start Month
  0.9838,                                 !- Year Escalation 1
  0.9730,                                 !- Year Escalation 2
  0.9632,                                 !- Year Escalation 3
  0.9611,                                 !- Year Escalation 4
  0.9571,                                 !- Year Escalation 5
  0.9553,                                 !- Year Escalation 6
  0.9539,                                 !- Year Escalation 7
  0.9521,                                 !- Year Escalation 8
  0.9546,                                 !- Year Escalation 9
  0.9550,                                 !- Year Escalation 10
  0.9553,                                 !- Year Escalation 11
  0.9564,                                 !- Year Escalation 12
  0.9575,                                 !- Year Escalation 13
  0.9596,                                 !- Year Escalation 14
  0.9618,                                 !- Year Escalation 15
  0.9614,                                 !- Year Escalation 16
  0.9618,                                 !- Year Escalation 17
  0.9618,                                 !- Year Escalation 18
  0.9593,                                 !- Year Escalation 19
  0.9589,                                 !- Year Escalation 20
  0.9607,                                 !- Year Escalation 21
  0.9625,                                 !- Year Escalation 22
  0.9650,                                 !- Year Escalation 23
  0.9708,                                 !- Year Escalation 24
  0.9751,                                 !- Year Escalation 25
  0.9762,                                 !- Year Escalation 26
  0.9766,                                 !- Year Escalation 27
  0.9766,                                 !- Year Escalation 28
  0.9769,                                 !- Year Escalation 29
  0.9773;                                 !- Year Escalation 30

LifeCycleCost:UsePriceEscalation,
  U.S. Avg  Commercial-Distillate Oil,    !- Name
  FuelOilNo1,                             !- Resource
  2011,                                   !- Escalation Start Year
  January,                                !- Escalation Start Month
  0.9714,                                 !- Year Escalation 1
  0.9730,                                 !- Year Escalation 2
  0.9942,                                 !- Year Escalation 3
  1.0164,                                 !- Year Escalation 4
  1.0541,                                 !- Year Escalation 5
  1.0928,                                 !- Year Escalation 6
  1.1267,                                 !- Year Escalation 7
  1.1580,                                 !- Year Escalation 8
  1.1792,                                 !- Year Escalation 9
  1.1967,                                 !- Year Escalation 10
  1.2200,                                 !- Year Escalation 11
  1.2333,                                 !- Year Escalation 12
  1.2566,                                 !- Year Escalation 13
  1.2709,                                 !- Year Escalation 14
  1.2826,                                 !- Year Escalation 15
  1.2985,                                 !- Year Escalation 16
  1.3102,                                 !- Year Escalation 17
  1.3250,                                 !- Year Escalation 18
  1.3261,                                 !- Year Escalation 19
  1.3282,                                 !- Year Escalation 20
  1.3324,                                 !- Year Escalation 21
  1.3356,                                 !- Year Escalation 22
  1.3431,                                 !- Year Escalation 23
  1.3510,                                 !- Year Escalation 24
  1.3568,                                 !- Year Escalation 25
  1.3606,                                 !- Year Escalation 26
  1.3637,                                 !- Year Escalation 27
  1.3674,                                 !- Year Escalation 28
  1.3706,                                 !- Year Escalation 29
  1.3743;                                 !- Year Escalation 30

LifeCycleCost:UsePriceEscalation,
  U.S. Avg  Commercial-Residual Oil,      !- Name
  FuelOilNo2,                             !- Resource
  2011,                                   !- Escalation Start Year
  January,                                !- Escalation Start Month
  0.8469,                                 !- Year Escalation 1
  0.8257,                                 !- Year Escalation 2
  0.8681,                                 !- Year Escalation 3
  0.8988,                                 !- Year Escalation 4
  0.9289,                                 !- Year Escalation 5
  0.9604,                                 !- Year Escalation 6
  0.9897,                                 !- Year Escalation 7
  1.0075,                                 !- Year Escalation 8
  1.0314,                                 !- Year Escalation 9
  1.0554,                                 !- Year Escalation 10
  1.0861,                                 !- Year Escalation 11
  1.1278,                                 !- Year Escalation 12
  1.1497,                                 !- Year Escalation 13
  1.1620,                                 !- Year Escalation 14
  1.1743,                                 !- Year Escalation 15
  1.1852,                                 !- Year Escalation 16
  1.1948,                                 !- Year Escalation 17
  1.2037,                                 !- Year Escalation 18
  1.2071,                                 !- Year Escalation 19
  1.2119,                                 !- Year Escalation 20
  1.2139,                                 !- Year Escalation 21
  1.2194,                                 !- Year Escalation 22
  1.2276,                                 !- Year Escalation 23
  1.2365,                                 !- Year Escalation 24
  1.2420,                                 !- Year Escalation 25
  1.2461,                                 !- Year Escalation 26
  1.2509,                                 !- Year Escalation 27
  1.2550,                                 !- Year Escalation 28
  1.2591,                                 !- Year Escalation 29
  1.2638;                                 !- Year Escalation 30

LifeCycleCost:UsePriceEscalation,
  U.S. Avg  Commercial-Natural gas,       !- Name
  NaturalGas,                             !- Resource
  2011,                                   !- Escalation Start Year
  January,                                !- Escalation Start Month
  0.9823,                                 !- Year Escalation 1
  0.9557,                                 !- Year Escalation 2
  0.9279,                                 !- Year Escalation 3
  0.9257,                                 !- Year Escalation 4
  0.9346,                                 !- Year Escalation 5
  0.9412,                                 !- Year Escalation 6
  0.9512,                                 !- Year Escalation 7
  0.9645,                                 !- Year Escalation 8
  0.9856,                                 !- Year Escalation 9
  1.0067,                                 !- Year Escalation 10
  1.0222,                                 !- Year Escalation 11
  1.0410,                                 !- Year Escalation 12
  1.0610,                                 !- Year Escalation 13
  1.0787,                                 !- Year Escalation 14
  1.0942,                                 !- Year Escalation 15
  1.1098,                                 !- Year Escalation 16
  1.1220,                                 !- Year Escalation 17
  1.1308,                                 !- Year Escalation 18
  1.1386,                                 !- Year Escalation 19
  1.1486,                                 !- Year Escalation 20
  1.1619,                                 !- Year Escalation 21
  1.1763,                                 !- Year Escalation 22
  1.1918,                                 !- Year Escalation 23
  1.2118,                                 !- Year Escalation 24
  1.2284,                                 !- Year Escalation 25
  1.2439,                                 !- Year Escalation 26
  1.2605,                                 !- Year Escalation 27
  1.2772,                                 !- Year Escalation 28
  1.2938,                                 !- Year Escalation 29
  1.3115;                                 !- Year Escalation 30

LifeCycleCost:UsePriceEscalation,
  U.S. Avg  Commercial-Coal,              !- Name
  Coal,                                   !- Resource
  2011,                                   !- Escalation Start Year
  January,                                !- Escalation Start Month
  0.9970,                                 !- Year Escalation 1
  1.0089,                                 !- Year Escalation 2
  1.0089,                                 !- Year Escalation 3
  0.9941,                                 !- Year Escalation 4
  0.9941,                                 !- Year Escalation 5
  1.0000,                                 !- Year Escalation 6
  1.0030,                                 !- Year Escalation 7
  1.0059,                                 !- Year Escalation 8
  1.0089,                                 !- Year Escalation 9
  1.0119,                                 !- Year Escalation 10
  1.0148,                                 !- Year Escalation 11
  1.0178,                                 !- Year Escalation 12
  1.0208,                                 !- Year Escalation 13
  1.0267,                                 !- Year Escalation 14
  1.0297,                                 !- Year Escalation 15
  1.0356,                                 !- Year Escalation 16
  1.0415,                                 !- Year Escalation 17
  1.0534,                                 !- Year Escalation 18
  1.0564,                                 !- Year Escalation 19
  1.0593,                                 !- Year Escalation 20
  1.0653,                                 !- Year Escalation 21
  1.0712,                                 !- Year Escalation 22
  1.0742,                                 !- Year Escalation 23
  1.0801,                                 !- Year Escalation 24
  1.0831,                                 !- Year Escalation 25
  1.0831,                                 !- Year Escalation 26
  1.0861,                                 !- Year Escalation 27
  1.0890,                                 !- Year Escalation 28
  1.0920,                                 !- Year Escalation 29
  1.0950;                                 !- Year Escalation 30

Building,
  bld_24,                                 !- Name
  ,                                       !- North Axis {deg}
  City,                                   !- Terrain
  ,                                       !- Loads Convergence Tolerance Value {W}
  ,                                       !- Temperature Convergence Tolerance Value {deltaC}
  ,                                       !- Solar Distribution
  ,                                       !- Maximum Number of Warmup Days
  ;                                       !- Minimum Number of Warmup Days

Shading:Building:Detailed,
  Shading Surface 27,                     !- Name
  ,                                       !- Transmittance Schedule Name
  ,                                       !- Number of Vertices
  -111.867317313304, 173.254447586884, 12, !- X,Y,Z Vertex 1 {m}
  -111.867317313304, 173.254447586884, 0, !- X,Y,Z Vertex 2 {m}
  -112.788559826509, 161.704221257877, 0, !- X,Y,Z Vertex 3 {m}
  -112.788559826509, 161.704221257877, 12; !- X,Y,Z Vertex 4 {m}

Shading:Building:Detailed,
  Shading Surface 28,                     !- Name
  ,                                       !- Transmittance Schedule Name
  ,                                       !- Number of Vertices
  -96.1257648155109, 153.929781481423, 12, !- X,Y,Z Vertex 1 {m}
  -96.1257648155109, 153.929781481423, 0, !- X,Y,Z Vertex 2 {m}
  -86.0777846722077, 153.15223549492, 0,  !- X,Y,Z Vertex 3 {m}
  -86.0777846722077, 153.15223549492, 12; !- X,Y,Z Vertex 4 {m}

Shading:Building:Detailed,
  Shading Surface 29,                     !- Name
  ,                                       !- Transmittance Schedule Name
  ,                                       !- Number of Vertices
  -112.788559826509, 161.704221257877, 12, !- X,Y,Z Vertex 1 {m}
  -112.788559826509, 161.704221257877, 0, !- X,Y,Z Vertex 2 {m}
  -95.6232805854166, 160.37125506366, 0,  !- X,Y,Z Vertex 3 {m}
  -95.6232805854166, 160.37125506366, 12; !- X,Y,Z Vertex 4 {m}

Shading:Building:Detailed,
  Shading Surface 30,                     !- Name
  ,                                       !- Transmittance Schedule Name
  ,                                       !- Number of Vertices
  -85.3240667236934, 163.258686956605, 12, !- X,Y,Z Vertex 1 {m}
  -85.3240667236934, 163.258686956605, 0, !- X,Y,Z Vertex 2 {m}
  -89.510719475007, 163.591917333328, 0,  !- X,Y,Z Vertex 3 {m}
  -89.510719475007, 163.591917333328, 12; !- X,Y,Z Vertex 4 {m}

Shading:Building:Detailed,
  Shading Surface 31,                     !- Name
  ,                                       !- Transmittance Schedule Name
  ,                                       !- Number of Vertices
  -111.867317313304, 173.254447586884, 12, !- X,Y,Z Vertex 1 {m}
  -112.788559826509, 161.704221257877, 12, !- X,Y,Z Vertex 2 {m}
  -95.6232805854166, 160.37125506366, 12, !- X,Y,Z Vertex 3 {m}
  -96.1257648155109, 153.929781481423, 12, !- X,Y,Z Vertex 4 {m}
  -86.0777846722077, 153.15223549492, 12, !- X,Y,Z Vertex 5 {m}
  -85.3240667236934, 163.258686956605, 12, !- X,Y,Z Vertex 6 {m}
  -89.510719475007, 163.591917333328, 12, !- X,Y,Z Vertex 7 {m}
  -88.9244910499134, 171.477170523673, 12; !- X,Y,Z Vertex 8 {m}

Shading:Building:Detailed,
  Shading Surface 32,                     !- Name
  ,                                       !- Transmittance Schedule Name
  ,                                       !- Number of Vertices
  -88.9244910499134, 171.477170523673, 0, !- X,Y,Z Vertex 1 {m}
  -89.510719475007, 163.591917333328, 0,  !- X,Y,Z Vertex 2 {m}
  -85.3240667236934, 163.258686956605, 0, !- X,Y,Z Vertex 3 {m}
  -86.0777846722077, 153.15223549492, 0,  !- X,Y,Z Vertex 4 {m}
  -96.1257648155109, 153.929781481423, 0, !- X,Y,Z Vertex 5 {m}
  -95.6232805854166, 160.37125506366, 0,  !- X,Y,Z Vertex 6 {m}
  -112.788559826509, 161.704221257877, 0, !- X,Y,Z Vertex 7 {m}
  -111.867317313304, 173.254447586884, 0; !- X,Y,Z Vertex 8 {m}

Shading:Building:Detailed,
  Shading Surface 33,                     !- Name
  ,                                       !- Transmittance Schedule Name
  ,                                       !- Number of Vertices
  -86.0777846722077, 153.15223549492, 12, !- X,Y,Z Vertex 1 {m}
  -86.0777846722077, 153.15223549492, 0,  !- X,Y,Z Vertex 2 {m}
  -85.3240667236934, 163.258686956605, 0, !- X,Y,Z Vertex 3 {m}
  -85.3240667236934, 163.258686956605, 12; !- X,Y,Z Vertex 4 {m}

Shading:Building:Detailed,
  Shading Surface 34,                     !- Name
  ,                                       !- Transmittance Schedule Name
  ,                                       !- Number of Vertices
  -95.6232805854166, 160.37125506366, 12, !- X,Y,Z Vertex 1 {m}
  -95.6232805854166, 160.37125506366, 0,  !- X,Y,Z Vertex 2 {m}
  -96.1257648155109, 153.929781481423, 0, !- X,Y,Z Vertex 3 {m}
  -96.1257648155109, 153.929781481423, 12; !- X,Y,Z Vertex 4 {m}

Shading:Building:Detailed,
  Shading Surface 35,                     !- Name
  ,                                       !- Transmittance Schedule Name
  ,                                       !- Number of Vertices
  -88.9244910499134, 171.477170523673, 12, !- X,Y,Z Vertex 1 {m}
  -88.9244910499134, 171.477170523673, 0, !- X,Y,Z Vertex 2 {m}
  -111.867317313304, 173.254447586884, 0, !- X,Y,Z Vertex 3 {m}
  -111.867317313304, 173.254447586884, 12; !- X,Y,Z Vertex 4 {m}

Shading:Building:Detailed,
  Shading Surface 36,                     !- Name
  ,                                       !- Transmittance Schedule Name
  ,                                       !- Number of Vertices
  -89.510719475007, 163.591917333328, 12, !- X,Y,Z Vertex 1 {m}
  -89.510719475007, 163.591917333328, 0,  !- X,Y,Z Vertex 2 {m}
  -88.9244910499134, 171.477170523673, 0, !- X,Y,Z Vertex 3 {m}
  -88.9244910499134, 171.477170523673, 12; !- X,Y,Z Vertex 4 {m}

Shading:Building:Detailed,
  Shading Surface 37,                     !- Name
  ,                                       !- Transmittance Schedule Name
  ,                                       !- Number of Vertices
  -69.0833389056357, -205.016354863971, 12, !- X,Y,Z Vertex 1 {m}
  -69.0833389056357, -205.016354863971, 0, !- X,Y,Z Vertex 2 {m}
  -143.77697902215, -199.795443760079, 0, !- X,Y,Z Vertex 3 {m}
  -143.77697902215, -199.795443760079, 12; !- X,Y,Z Vertex 4 {m}

Shading:Building:Detailed,
  Shading Surface 38,                     !- Name
  ,                                       !- Transmittance Schedule Name
  ,                                       !- Number of Vertices
  -32.9928173070353, -268.765010970066, 12, !- X,Y,Z Vertex 1 {m}
  -32.9928173070353, -268.765010970066, 0, !- X,Y,Z Vertex 2 {m}
  -32.8253300423261, -266.321693277753, 0, !- X,Y,Z Vertex 3 {m}
  -32.8253300423261, -266.321693277753, 12; !- X,Y,Z Vertex 4 {m}

Shading:Building:Detailed,
  Shading Surface 39,                     !- Name
  ,                                       !- Transmittance Schedule Name
  ,                                       !- Number of Vertices
  -98.3084643716504, -262.656124796923, 12, !- X,Y,Z Vertex 1 {m}
  -98.3084643716504, -262.656124796923, 0, !- X,Y,Z Vertex 2 {m}
  -89.3485017916538, -263.322600058436, 0, !- X,Y,Z Vertex 3 {m}
  -89.3485017916538, -263.322600058436, 12; !- X,Y,Z Vertex 4 {m}

Shading:Building:Detailed,
  Shading Surface 40,                     !- Name
  ,                                       !- Transmittance Schedule Name
  ,                                       !- Number of Vertices
  -27.2983722750655, -201.351653898177, 12, !- X,Y,Z Vertex 1 {m}
  -27.2983722750655, -201.351653898177, 0, !- X,Y,Z Vertex 2 {m}
  -46.976638152502, -200.018834044097, 0, !- X,Y,Z Vertex 3 {m}
  -46.976638152502, -200.018834044097, 12; !- X,Y,Z Vertex 4 {m}

Shading:Building:Detailed,
  Shading Surface 41,                     !- Name
  ,                                       !- Transmittance Schedule Name
  ,                                       !- Number of Vertices
  -27.5495994458529, -205.349810818709, 12, !- X,Y,Z Vertex 1 {m}
  -27.5495994458529, -205.349810818709, 0, !- X,Y,Z Vertex 2 {m}
  -27.2983722750655, -201.351653898177, 0, !- X,Y,Z Vertex 3 {m}
  -27.2983722750655, -201.351653898177, 12; !- X,Y,Z Vertex 4 {m}

Shading:Building:Detailed,
  Shading Surface 42,                     !- Name
  ,                                       !- Transmittance Schedule Name
  ,                                       !- Number of Vertices
  -85.6640484353733, -265.099603304841, 12, !- X,Y,Z Vertex 1 {m}
  -85.6640484353733, -265.099603304841, 0, !- X,Y,Z Vertex 2 {m}
  -32.9928173070353, -268.765010970066, 0, !- X,Y,Z Vertex 3 {m}
  -32.9928173070353, -268.765010970066, 12; !- X,Y,Z Vertex 4 {m}

Shading:Building:Detailed,
  Shading Surface 43,                     !- Name
  ,                                       !- Transmittance Schedule Name
  ,                                       !- Number of Vertices
  -46.976638152502, -200.018834044097, 12, !- X,Y,Z Vertex 1 {m}
  -46.976638152502, -200.018834044097, 0, !- X,Y,Z Vertex 2 {m}
  -47.1441272066894, -202.240031782476, 0, !- X,Y,Z Vertex 3 {m}
  -47.1441272066894, -202.240031782476, 12; !- X,Y,Z Vertex 4 {m}

Shading:Building:Detailed,
  Shading Surface 44,                     !- Name
  ,                                       !- Transmittance Schedule Name
  ,                                       !- Number of Vertices
  -2.51213861247578, -254.771534174552, 12, !- X,Y,Z Vertex 1 {m}
  -2.51213861247578, -254.771534174552, 0, !- X,Y,Z Vertex 2 {m}
  6.86651283756849, -255.437890955493, 0, !- X,Y,Z Vertex 3 {m}
  6.86651283756849, -255.437890955493, 12; !- X,Y,Z Vertex 4 {m}

Shading:Building:Detailed,
  Shading Surface 45,                     !- Name
  ,                                       !- Transmittance Schedule Name
  ,                                       !- Number of Vertices
  -143.77697902215, -199.795443760079, 12, !- X,Y,Z Vertex 1 {m}
  -147.378744548537, -252.104601870317, 12, !- X,Y,Z Vertex 2 {m}
  -150.309569556615, -251.993481912183, 12, !- X,Y,Z Vertex 3 {m}
  -150.728383543798, -257.99070955417, 12, !- X,Y,Z Vertex 4 {m}
  -98.224711316314, -261.545526623807, 12, !- X,Y,Z Vertex 5 {m}
  -98.3084643716504, -262.656124796923, 12, !- X,Y,Z Vertex 6 {m}
  -89.3485017916538, -263.322600058436, 12, !- X,Y,Z Vertex 7 {m}
  -87.8409537561581, -241.55487172394, 12, !- X,Y,Z Vertex 8 {m}
  -83.9890174557103, -241.777037129387, 12, !- X,Y,Z Vertex 9 {m}
  -85.6640484353733, -265.099603304841, 12, !- X,Y,Z Vertex 10 {m}
  -32.9928173070353, -268.765010970066, 12, !- X,Y,Z Vertex 11 {m}
  -32.8253300423261, -266.321693277753, 12, !- X,Y,Z Vertex 12 {m}
  -3.4332625046334, -268.320845332389, 12, !- X,Y,Z Vertex 13 {m}
  -2.51213861247578, -254.771534174552, 12, !- X,Y,Z Vertex 14 {m}
  6.86651283756849, -255.437890955493, 12, !- X,Y,Z Vertex 15 {m}
  8.20629840049904, -236.113461159764, 12, !- X,Y,Z Vertex 16 {m}
  -0.753639580545212, -235.447106143527, 12, !- X,Y,Z Vertex 17 {m}
  1.17232370263524, -207.348941867453, 12, !- X,Y,Z Vertex 18 {m}
  -27.5495994458529, -205.349810818709, 12, !- X,Y,Z Vertex 19 {m}
  -27.2983722750655, -201.351653898177, 12, !- X,Y,Z Vertex 20 {m}
  -46.976638152502, -200.018834044097, 12, !- X,Y,Z Vertex 21 {m}
  -47.1441272066894, -202.240031782476, 12, !- X,Y,Z Vertex 22 {m}
  -68.8320867932585, -200.796079495857, 12, !- X,Y,Z Vertex 23 {m}
  -69.0833389056357, -205.016354863971, 12; !- X,Y,Z Vertex 24 {m}

Shading:Building:Detailed,
  Shading Surface 46,                     !- Name
  ,                                       !- Transmittance Schedule Name
  ,                                       !- Number of Vertices
  1.17232370263524, -207.348941867453, 12, !- X,Y,Z Vertex 1 {m}
  1.17232370263524, -207.348941867453, 0, !- X,Y,Z Vertex 2 {m}
  -27.5495994458529, -205.349810818709, 0, !- X,Y,Z Vertex 3 {m}
  -27.5495994458529, -205.349810818709, 12; !- X,Y,Z Vertex 4 {m}

Shading:Building:Detailed,
  Shading Surface 47,                     !- Name
  ,                                       !- Transmittance Schedule Name
  ,                                       !- Number of Vertices
  -68.8320867932585, -200.796079495857, 12, !- X,Y,Z Vertex 1 {m}
  -68.8320867932585, -200.796079495857, 0, !- X,Y,Z Vertex 2 {m}
  -69.0833389056357, -205.016354863971, 0, !- X,Y,Z Vertex 3 {m}
  -69.0833389056357, -205.016354863971, 12; !- X,Y,Z Vertex 4 {m}

Shading:Building:Detailed,
  Shading Surface 48,                     !- Name
  ,                                       !- Transmittance Schedule Name
  ,                                       !- Number of Vertices
  -98.224711316314, -261.545526623807, 12, !- X,Y,Z Vertex 1 {m}
  -98.224711316314, -261.545526623807, 0, !- X,Y,Z Vertex 2 {m}
  -98.3084643716504, -262.656124796923, 0, !- X,Y,Z Vertex 3 {m}
  -98.3084643716504, -262.656124796923, 12; !- X,Y,Z Vertex 4 {m}

Shading:Building:Detailed,
  Shading Surface 49,                     !- Name
  ,                                       !- Transmittance Schedule Name
  ,                                       !- Number of Vertices
  -89.3485017916538, -263.322600058436, 12, !- X,Y,Z Vertex 1 {m}
  -89.3485017916538, -263.322600058436, 0, !- X,Y,Z Vertex 2 {m}
  -87.8409537561581, -241.55487172394, 0, !- X,Y,Z Vertex 3 {m}
  -87.8409537561581, -241.55487172394, 12; !- X,Y,Z Vertex 4 {m}

Shading:Building:Detailed,
  Shading Surface 50,                     !- Name
  ,                                       !- Transmittance Schedule Name
  ,                                       !- Number of Vertices
  -47.1441272066894, -202.240031782476, 12, !- X,Y,Z Vertex 1 {m}
  -47.1441272066894, -202.240031782476, 0, !- X,Y,Z Vertex 2 {m}
  -68.8320867932585, -200.796079495857, 0, !- X,Y,Z Vertex 3 {m}
  -68.8320867932585, -200.796079495857, 12; !- X,Y,Z Vertex 4 {m}

Shading:Building:Detailed,
  Shading Surface 51,                     !- Name
  ,                                       !- Transmittance Schedule Name
  ,                                       !- Number of Vertices
  8.20629840049904, -236.113461159764, 12, !- X,Y,Z Vertex 1 {m}
  8.20629840049904, -236.113461159764, 0, !- X,Y,Z Vertex 2 {m}
  -0.753639580545212, -235.447106143527, 0, !- X,Y,Z Vertex 3 {m}
  -0.753639580545212, -235.447106143527, 12; !- X,Y,Z Vertex 4 {m}

Shading:Building:Detailed,
  Shading Surface 52,                     !- Name
  ,                                       !- Transmittance Schedule Name
  ,                                       !- Number of Vertices
  -0.753639580545212, -235.447106143527, 12, !- X,Y,Z Vertex 1 {m}
  -0.753639580545212, -235.447106143527, 0, !- X,Y,Z Vertex 2 {m}
  1.17232370263524, -207.348941867453, 0, !- X,Y,Z Vertex 3 {m}
  1.17232370263524, -207.348941867453, 12; !- X,Y,Z Vertex 4 {m}

Shading:Building:Detailed,
  Shading Surface 53,                     !- Name
  ,                                       !- Transmittance Schedule Name
  ,                                       !- Number of Vertices
  -83.9890174557103, -241.777037129387, 12, !- X,Y,Z Vertex 1 {m}
  -83.9890174557103, -241.777037129387, 0, !- X,Y,Z Vertex 2 {m}
  -85.6640484353733, -265.099603304841, 0, !- X,Y,Z Vertex 3 {m}
  -85.6640484353733, -265.099603304841, 12; !- X,Y,Z Vertex 4 {m}

Shading:Building:Detailed,
  Shading Surface 54,                     !- Name
  ,                                       !- Transmittance Schedule Name
  ,                                       !- Number of Vertices
  -147.378744548537, -252.104601870317, 12, !- X,Y,Z Vertex 1 {m}
  -147.378744548537, -252.104601870317, 0, !- X,Y,Z Vertex 2 {m}
  -150.309569556615, -251.993481912183, 0, !- X,Y,Z Vertex 3 {m}
  -150.309569556615, -251.993481912183, 12; !- X,Y,Z Vertex 4 {m}

Shading:Building:Detailed,
  Shading Surface 55,                     !- Name
  ,                                       !- Transmittance Schedule Name
  ,                                       !- Number of Vertices
  -69.0833389056357, -205.016354863971, 0, !- X,Y,Z Vertex 1 {m}
  -68.8320867932585, -200.796079495857, 0, !- X,Y,Z Vertex 2 {m}
  -47.1441272066894, -202.240031782476, 0, !- X,Y,Z Vertex 3 {m}
  -46.976638152502, -200.018834044097, 0, !- X,Y,Z Vertex 4 {m}
  -27.2983722750655, -201.351653898177, 0, !- X,Y,Z Vertex 5 {m}
  -27.5495994458529, -205.349810818709, 0, !- X,Y,Z Vertex 6 {m}
  1.17232370263524, -207.348941867453, 0, !- X,Y,Z Vertex 7 {m}
  -0.753639580545212, -235.447106143527, 0, !- X,Y,Z Vertex 8 {m}
  8.20629840049904, -236.113461159764, 0, !- X,Y,Z Vertex 9 {m}
  6.86651283756849, -255.437890955493, 0, !- X,Y,Z Vertex 10 {m}
  -2.51213861247578, -254.771534174552, 0, !- X,Y,Z Vertex 11 {m}
  -3.4332625046334, -268.320845332389, 0, !- X,Y,Z Vertex 12 {m}
  -32.8253300423261, -266.321693277753, 0, !- X,Y,Z Vertex 13 {m}
  -32.9928173070353, -268.765010970066, 0, !- X,Y,Z Vertex 14 {m}
  -85.6640484353733, -265.099603304841, 0, !- X,Y,Z Vertex 15 {m}
  -83.9890174557103, -241.777037129387, 0, !- X,Y,Z Vertex 16 {m}
  -87.8409537561581, -241.55487172394, 0, !- X,Y,Z Vertex 17 {m}
  -89.3485017916538, -263.322600058436, 0, !- X,Y,Z Vertex 18 {m}
  -98.3084643716504, -262.656124796923, 0, !- X,Y,Z Vertex 19 {m}
  -98.224711316314, -261.545526623807, 0, !- X,Y,Z Vertex 20 {m}
  -150.728383543798, -257.99070955417, 0, !- X,Y,Z Vertex 21 {m}
  -150.309569556615, -251.993481912183, 0, !- X,Y,Z Vertex 22 {m}
  -147.378744548537, -252.104601870317, 0, !- X,Y,Z Vertex 23 {m}
  -143.77697902215, -199.795443760079, 0; !- X,Y,Z Vertex 24 {m}

Shading:Building:Detailed,
  Shading Surface 56,                     !- Name
  ,                                       !- Transmittance Schedule Name
  ,                                       !- Number of Vertices
  -143.77697902215, -199.795443760079, 12, !- X,Y,Z Vertex 1 {m}
  -143.77697902215, -199.795443760079, 0, !- X,Y,Z Vertex 2 {m}
  -147.378744548537, -252.104601870317, 0, !- X,Y,Z Vertex 3 {m}