  ConvergenceLimits,
    0,                       !- Minimum System Timestep {minutes}
    25;                      !- Maximum HVAC Iterations

  Version,23.1;

  Timestep,1;

  LifeCycleCost:Parameters,
    Life Cycle Cost Parameters,  !- Name
    EndOfYear,               !- Discounting Convention
    ConstantDollar,          !- Inflation Approach
    0.03,                    !- Real Discount Rate
    ,                        !- Nominal Discount Rate
    ,                        !- Inflation
    ,                        !- Base Date Month
    2011,                    !- Base Date Year
    ,                        !- Service Date Month
    2011,                    !- Service Date Year
    25,                      !- Length of Study Period in Years
    ,                        !- Tax rate
    None;                    !- Depreciation Method

  LifeCycleCost:UsePriceEscalation,
    U.S. Avg  Commercial-Electricity,  !- LCC Price Escalation Name
    Electricity,             !- Resource
    2011,                    !- Escalation Start Year
    January,                 !- Escalation Start Month
    0.9838,                  !- Year 1 Escalation
    0.9730,                  !- Year 2 Escalation
    0.9632,                  !- Year 3 Escalation
    0.9611,                  !- Year 4 Escalation
    0.9571,                  !- Year 5 Escalation
    0.9553,                  !- Year 6 Escalation
    0.9539,                  !- Year 7 Escalation
    0.9521,                  !- Year 8 Escalation
    0.9546,                  !- Year 9 Escalation
    0.9550,                  !- <none>
    0.9553,                  !- <none>
    0.9564,                  !- <none>
    0.9575,                  !- <none>
    0.9596,                  !- <none>
    0.9618,                  !- <none>
    0.9614,                  !- <none>
    0.9618,                  !- <none>
    0.9618,                  !- <none>
    0.9593,                  !- <none>
    0.9589,                  !- <none>
    0.9607,                  !- <none>
    0.9625,                  !- <none>
    0.9650,                  !- <none>
    0.9708,                  !- <none>
    0.9751,                  !- <none>
    0.9762,                  !- <none>
    0.9766,                  !- <none>
    0.9766,                  !- <none>
    0.9769,                  !- <none>
    0.9773;                  !- <none>

  LifeCycleCost:UsePriceEscalation,
    U.S. Avg  Commercial-Distillate Oil,  !- LCC Price Escalation Name
    FuelOilNo1,              !- Resource
    2011,                    !- Escalation Start Year
    January,                 !- Escalation Start Month
    0.9714,                  !- Year 1 Escalation
    0.9730,                  !- Year 2 Escalation
    0.9942,                  !- Year 3 Escalation
    1.0164,                  !- Year 4 Escalation
    1.0541,                  !- Year 5 Escalation
    1.0928,                  !- Year 6 Escalation
    1.1267,                  !- Year 7 Escalation
    1.1580,                  !- Year 8 Escalation
    1.1792,                  !- Year 9 Escalation
    1.1967,                  !- <none>
    1.2200,                  !- <none>
    1.2333,                  !- <none>
    1.2566,                  !- <none>
    1.2709,                  !- <none>
    1.2826,                  !- <none>
    1.2985,                  !- <none>
    1.3102,                  !- <none>
    1.3250,                  !- <none>
    1.3261,                  !- <none>
    1.3282,                  !- <none>
    1.3324,                  !- <none>
    1.3356,                  !- <none>
    1.3431,                  !- <none>
    1.3510,                  !- <none>
    1.3568,                  !- <none>
    1.3606,                  !- <none>
    1.3637,                  !- <none>
    1.3674,                  !- <none>
    1.3706,                  !- <none>
    1.3743;                  !- <none>

  LifeCycleCost:UsePriceEscalation,
    U.S. Avg  Commercial-Residual Oil,  !- LCC Price Escalation Name
    FuelOilNo2,              !- Resource
    2011,                    !- Escalation Start Year
    January,                 !- Escalation Start Month
    0.8469,                  !- Year 1 Escalation
    0.8257,                  !- Year 2 Escalation
    0.8681,                  !- Year 3 Escalation
    0.8988,                  !- Year 4 Escalation
    0.9289,                  !- Year 5 Escalation
    0.9604,                  !- Year 6 Escalation
    0.9897,                  !- Year 7 Escalation
    1.0075,                  !- Year 8 Escalation
    1.0314,                  !- Year 9 Escalation
    1.0554,                  !- <none>
    1.0861,                  !- <none>
    1.1278,                  !- <none>
    1.1497,                  !- <none>
    1.1620,                  !- <none>
    1.1743,                  !- <none>
    1.1852,                  !- <none>
    1.1948,                  !- <none>
    1.2037,                  !- <none>
    1.2071,                  !- <none>
    1.2119,                  !- <none>
    1.2139,                  !- <none>
    1.2194,                  !- <none>
    1.2276,                  !- <none>
    1.2365,                  !- <none>
    1.2420,                  !- <none>
    1.2461,                  !- <none>
    1.2509,                  !- <none>
    1.2550,                  !- <none>
    1.2591,                  !- <none>
    1.2638;                  !- <none>

  LifeCycleCost:UsePriceEscalation,
    U.S. Avg  Commercial-Natural gas,  !- LCC Price Escalation Name
    NaturalGas,              !- Resource
    2011,                    !- Escalation Start Year
    January,                 !- Escalation Start Month
    0.9823,                  !- Year 1 Escalation
    0.9557,                  !- Year 2 Escalation
    0.9279,                  !- Year 3 Escalation
    0.9257,                  !- Year 4 Escalation
    0.9346,                  !- Year 5 Escalation
    0.9412,                  !- Year 6 Escalation
    0.9512,                  !- Year 7 Escalation
    0.9645,                  !- Year 8 Escalation
    0.9856,                  !- Year 9 Escalation
    1.0067,                  !- <none>
    1.0222,                  !- <none>
    1.0410,                  !- <none>
    1.0610,                  !- <none>
    1.0787,                  !- <none>
    1.0942,                  !- <none>
    1.1098,                  !- <none>
    1.1220,                  !- <none>
    1.1308,                  !- <none>
    1.1386,                  !- <none>
    1.1486,                  !- <none>
    1.1619,                  !- <none>
    1.1763,                  !- <none>
    1.1918,                  !- <none>
    1.2118,                  !- <none>
    1.2284,                  !- <none>
    1.2439,                  !- <none>
    1.2605,                  !- <none>
    1.2772,                  !- <none>
    1.2938,                  !- <none>
    1.3115;                  !- <none>

  LifeCycleCost:UsePriceEscalation,
    U.S. Avg  Commercial-Coal,  !- LCC Price Escalation Name
    Coal,                    !- Resource
    2011,                    !- Escalation Start Year
    January,                 !- Escalation Start Month
    0.9970,                  !- Year 1 Escalation
    1.0089,                  !- Year 2 Escalation
    1.0089,                  !- Year 3 Escalation
    0.9941,                  !- Year 4 Escalation
    0.9941,                  !- Year 5 Escalation
    1.0000,                  !- Year 6 Escalation
    1.0030,                  !- Year 7 Escalation
    1.0059,                  !- Year 8 Escalation
    1.0089,                  !- Year 9 Escalation
    1.0119,                  !- <none>
    1.0148,                  !- <none>
    1.0178,                  !- <none>
    1.0208,                  !- <none>
    1.0267,                  !- <none>
    1.0297,                  !- <none>
    1.0356,                  !- <none>
    1.0415,                  !- <none>
    1.0534,                  !- <none>
    1.0564,                  !- <none>
    1.0593,                  !- <none>
    1.0653,                  !- <none>
    1.0712,                  !- <none>
    1.0742,                  !- <none>
    1.0801,                  !- <none>
    1.0831,                  !- <none>
    1.0831,                  !- <none>
    1.0861,                  !- <none>
    1.0890,                  !- <none>
    1.0920,                  !- <none>
    1.0950;                  !- <none>

  Building,
    bld_13,                  !- Name
    ,                        !- North Axis {deg}
    City,                    !- Terrain
    ,                        !- Loads Convergence Tolerance Value {W}
    ,                        !- Temperature Convergence Tolerance Value {deltaC}
    ,                        !- Solar Distribution
    ,                        !- Maximum Number of Warmup Days
    ;                        !- Minimum Number of Warmup Days

  Shading:Building:Detailed,
    Shading Surface 1,       !- Name
    ,                        !- Transmittance Schedule Name
    ,                        !- Number of Vertices
    289.715711148533,101.292495216505,0,  !- X,Y,Z ==> Vertex 1 {m}
    289.130327881372,82.5233306658336,0,  !- X,Y,Z ==> Vertex 2 {m}
    280.505811998707,82.7451126490141,0,  !- X,Y,Z ==> Vertex 3 {m}
    281.09121752272,101.514276511272,0;  !- X,Y,Z ==> Vertex 4 {m}

  Shading:Building:Detailed,
    Shading Surface 2,       !- Name
    ,                        !- Transmittance Schedule Name
    ,                        !- Number of Vertices
    289.130327881372,82.5233306658336,12,  !- X,Y,Z ==> Vertex 1 {m}
    289.130327881372,82.5233306658336,0,  !- X,Y,Z ==> Vertex 2 {m}
    289.715711148533,101.292495216505,0,  !- X,Y,Z ==> Vertex 3 {m}
    289.715711148533,101.292495216505,12;  !- X,Y,Z ==> Vertex 4 {m}

  Shading:Building:Detailed,
    Shading Surface 3,       !- Name
    ,                        !- Transmittance Schedule Name
    ,                        !- Number of Vertices
    280.505811998707,82.7451126490141,12,  !- X,Y,Z ==> Vertex 1 {m}
    280.505811998707,82.7451126490141,0,  !- X,Y,Z ==> Vertex 2 {m}
    289.130327881372,82.5233306658336,0,  !- X,Y,Z ==> Vertex 3 {m}
    289.130327881372,82.5233306658336,12;  !- X,Y,Z ==> Vertex 4 {m}

  Shading:Building:Detailed,
    Shading Surface 4,       !- Name
    ,                        !- Transmittance Schedule Name
    ,                        !- Number of Vertices
    281.09121752272,101.514276511272,12,  !- X,Y,Z ==> Vertex 1 {m}
    281.09121752272,101.514276511272,0,  !- X,Y,Z ==> Vertex 2 {m}
    280.505811998707,82.7451126490141,0,  !- X,Y,Z ==> Vertex 3 {m}
    280.505811998707,82.7451126490141,12;  !- X,Y,Z ==> Vertex 4 {m}

  Shading:Building:Detailed,
    Shading Surface 5,       !- Name
    ,                        !- Transmittance Schedule Name
    ,                        !- Number of Vertices
    289.715711148533,101.292495216505,12,  !- X,Y,Z ==> Vertex 1 {m}
    289.715711148533,101.292495216505,0,  !- X,Y,Z ==> Vertex 2 {m}
    281.09121752272,101.514276511272,0,  !- X,Y,Z ==> Vertex 3 {m}
    281.09121752272,101.514276511272,12;  !- X,Y,Z ==> Vertex 4 {m}

  Shading:Building:Detailed,
    Shading Surface 6,       !- Name
    ,                        !- Transmittance Schedule Name
    ,                        !- Number of Vertices
    281.09121752272,101.514276511272,12,  !- X,Y,Z ==> Vertex 1 {m}
    280.505811998707,82.7451126490141,12,  !- X,Y,Z ==> Vertex 2 {m}
    289.130327881372,82.5233306658336,12,  !- X,Y,Z ==> Vertex 3 {m}
    289.715711148533,101.292495216505,12;  !- X,Y,Z ==> Vertex 4 {m}

  Shading:Building:Detailed,
    Shading Surface 54,      !- Name
    ,                        !- Transmittance Schedule Name
    ,                        !- Number of Vertices
    135.73570296846,-151.92878222398,0,  !- X,Y,Z ==> Vertex 1 {m}
    135.3171646762,-159.480867585843,0,  !- X,Y,Z ==> Vertex 2 {m}
    144.276913705523,-160.035995045691,0,  !- X,Y,Z ==> Vertex 3 {m}
    142.26792014734,-194.131442473835,0,  !- X,Y,Z ==> Vertex 4 {m}
    73.1017221739319,-190.134308899115,0,  !- X,Y,Z ==> Vertex 5 {m}
    75.1947519705459,-153.817680227741,0,  !- X,Y,Z ==> Vertex 6 {m}
    83.0659226207053,-154.261834378408,0,  !- X,Y,Z ==> Vertex 7 {m}
    83.4008046791493,-148.930952232964,0;  !- X,Y,Z ==> Vertex 8 {m}

  Shading:Building:Detailed,
    Shading Surface 55,      !- Name
    ,                        !- Transmittance Schedule Name
    ,                        !- Number of Vertices
    142.26792014734,-194.131442473835,12,  !- X,Y,Z ==> Vertex 1 {m}
    142.26792014734,-194.131442473835,0,  !- X,Y,Z ==> Vertex 2 {m}
    144.276913705523,-160.035995045691,0,  !- X,Y,Z ==> Vertex 3 {m}
    144.276913705523,-160.035995045691,12;  !- X,Y,Z ==> Vertex 4 {m}

  Shading:Building:Detailed,
    Shading Surface 56,      !- Name
    ,                        !- Transmittance Schedule Name
    ,                        !- Number of Vertices
    73.1017221739319,-190.134308899115,12,  !- X,Y,Z ==> Vertex 1 {m}
    73.1017221739319,-190.134308899115,0,  !- X,Y,Z ==> Vertex 2 {m}
    142.26792014734,-194.131442473835,0,  !- X,Y,Z ==> Vertex 3 {m}
    142.26792014734,-194.131442473835,12;  !- X,Y,Z ==> Vertex 4 {m}

  Shading:Building:Detailed,
    Shading Surface 57,      !- Name
    ,                        !- Transmittance Schedule Name
    ,                        !- Number of Vertices
    135.3171646762,-159.480867585843,12,  !- X,Y,Z ==> Vertex 1 {m}
    135.3171646762,-159.480867585843,0,  !- X,Y,Z ==> Vertex 2 {m}
    135.73570296846,-151.92878222398,0,  !- X,Y,Z ==> Vertex 3 {m}
    135.73570296846,-151.92878222398,12;  !- X,Y,Z ==> Vertex 4 {m}

  Shading:Building:Detailed,
    Shading Surface 58,      !- Name
    ,                        !- Transmittance Schedule Name
    ,                        !- Number of Vertices
    144.276913705523,-160.035995045691,12,  !- X,Y,Z ==> Vertex 1 {m}
    144.276913705523,-160.035995045691,0,  !- X,Y,Z ==> Vertex 2 {m}
    135.3171646762,-159.480867585843,0,  !- X,Y,Z ==> Vertex 3 {m}
    135.3171646762,-159.480867585843,12;  !- X,Y,Z ==> Vertex 4 {m}

  Shading:Building:Detailed,
    Shading Surface 59,      !- Name
    ,                        !- Transmittance Schedule Name
    ,                        !- Number of Vertices
    83.4008046791493,-148.930952232964,12,  !- X,Y,Z ==> Vertex 1 {m}
    83.4008046791493,-148.930952232964,0,  !- X,Y,Z ==> Vertex 2 {m}
    83.0659226207053,-154.261834378408,0,  !- X,Y,Z ==> Vertex 3 {m}
    83.0659226207053,-154.261834378408,12;  !- X,Y,Z ==> Vertex 4 {m}

  Shading:Building:Detailed,
    Shading Surface 60,      !- Name
    ,                        !- Transmittance Schedule Name
    ,                        !- Number of Vertices
    75.1947519705459,-153.817680227741,12,  !- X,Y,Z ==> Vertex 1 {m}
    75.1947519705459,-153.817680227741,0,  !- X,Y,Z ==> Vertex 2 {m}
    73.1017221739319,-190.134308899115,0,  !- X,Y,Z ==> Vertex 3 {m}
    73.1017221739319,-190.134308899115,12;  !- X,Y,Z ==> Vertex 4 {m}

  Shading:Building:Detailed,
    Shading Surface 61,      !- Name
    ,                        !- Transmittance Schedule Name
    ,                        !- Number of Vertices
    135.73570296846,-151.92878222398,12,  !- X,Y,Z ==> Vertex 1 {m}
    135.73570296846,-151.92878222398,0,  !- X,Y,Z ==> Vertex 2 {m}
    83.4008046791493,-148.930952232964,0,  !- X,Y,Z ==> Vertex 3 {m}
    83.4008046791493,-148.930952232964,12;  !- X,Y,Z ==> Vertex 4 {m}

  Shading:Building:Detailed,
    Shading Surface 62,      !- Name
    ,                        !- Transmittance Schedule Name
    ,                        !- Number of Vertices
    83.4008046791493,-148.930952232964,12,  !- X,Y,Z ==> Vertex 1 {m}
    83.0659226207053,-154.261834378408,12,  !- X,Y,Z ==> Vertex 2 {m}
    75.1947519705459,-153.817680227741,12,  !- X,Y,Z ==> Vertex 3 {m}
    73.1017221739319,-190.134308899115,12,  !- X,Y,Z ==> Vertex 4 {m}
    142.26792014734,-194.131442473835,12,  !- X,Y,Z ==> Vertex 5 {m}
    144.276913705523,-160.035995045691,12,  !- X,Y,Z ==> Vertex 6 {m}
    135.3171646762,-159.480867585843,12,  !- X,Y,Z ==> Vertex 7 {m}
    135.73570296846,-151.92878222398,12;  !- X,Y,Z ==> Vertex 8 {m}

  Shading:Building:Detailed,
    Shading Surface 63,      !- Name
    ,                        !- Transmittance Schedule Name
    ,                        !- Number of Vertices
    83.0659226207053,-154.261834378408,12,  !- X,Y,Z ==> Vertex 1 {m}
    83.0659226207053,-154.261834378408,0,  !- X,Y,Z ==> Vertex 2 {m}
    75.1947519705459,-153.817680227741,0,  !- X,Y,Z ==> Vertex 3 {m}
    75.1947519705459,-153.817680227741,12;  !- X,Y,Z ==> Vertex 4 {m}

  Shading:Building:Detailed,
    Shading Surface 64,      !- Name
    ,                        !- Transmittance Schedule Name
    ,                        !- Number of Vertices
    24.3666475200438,-13.2160979674907,12,  !- X,Y,Z ==> Vertex 1 {m}
    24.3666475200438,-13.2160979674907,0,  !- X,Y,Z ==> Vertex 2 {m}
    22.8594975375731,-33.9843204544556,0,  !- X,Y,Z ==> Vertex 3 {m}
    22.8594975375731,-33.9843204544556,12;  !- X,Y,Z ==> Vertex 4 {m}

  Shading:Building:Detailed,
    Shading Surface 65,      !- Name
    ,                        !- Transmittance Schedule Name
    ,                        !- Number of Vertices
    57.0231369807153,-33.3177727698703,12,  !- X,Y,Z ==> Vertex 1 {m}
    57.0231369807153,-33.3177727698703,0,  !- X,Y,Z ==> Vertex 2 {m}
    59.5351630771821,-32.5403327253513,0,  !- X,Y,Z ==> Vertex 3 {m}
    59.5351630771821,-32.5403327253513,12;  !- X,Y,Z ==> Vertex 4 {m}

  Shading:Building:Detailed,
    Shading Surface 66,      !- Name
    ,                        !- Transmittance Schedule Name
    ,                        !- Number of Vertices
    41.9510479692471,-51.6427727373213,12,  !- X,Y,Z ==> Vertex 1 {m}
    41.9510479692471,-51.6427727373213,0,  !- X,Y,Z ==> Vertex 2 {m}
    44.6305573876138,-51.864876739061,0,  !- X,Y,Z ==> Vertex 3 {m}
    44.6305573876138,-51.864876739061,12;  !- X,Y,Z ==> Vertex 4 {m}

  Shading:Building:Detailed,
    Shading Surface 67,      !- Name
    ,                        !- Transmittance Schedule Name
    ,                        !- Number of Vertices
    41.1974948813765,-61.9713553097395,12,  !- X,Y,Z ==> Vertex 1 {m}
    41.1974948813765,-61.9713553097395,0,  !- X,Y,Z ==> Vertex 2 {m}
    41.9510479692471,-51.6427727373213,0,  !- X,Y,Z ==> Vertex 3 {m}
    41.9510479692471,-51.6427727373213,12;  !- X,Y,Z ==> Vertex 4 {m}

  Shading:Building:Detailed,
    Shading Surface 68,      !- Name
    ,                        !- Transmittance Schedule Name
    ,                        !- Number of Vertices
    38.3507192452675,-100.953422821733,12,  !- X,Y,Z ==> Vertex 1 {m}
    38.3507192452675,-100.953422821733,0,  !- X,Y,Z ==> Vertex 2 {m}
    38.5181743306745,-98.0658626165797,0,  !- X,Y,Z ==> Vertex 3 {m}
    38.5181743306745,-98.0658626165797,12;  !- X,Y,Z ==> Vertex 4 {m}

  Shading:Building:Detailed,
    Shading Surface 69,      !- Name
    ,                        !- Transmittance Schedule Name
    ,                        !- Number of Vertices
    20.4312014500964,-34.7617475831388,12,  !- X,Y,Z ==> Vertex 1 {m}
    20.4312014500964,-34.7617475831388,0,  !- X,Y,Z ==> Vertex 2 {m}
    21.4360238088159,-37.8714242650698,0,  !- X,Y,Z ==> Vertex 3 {m}
    21.4360238088159,-37.8714242650698,12;  !- X,Y,Z ==> Vertex 4 {m}

  Shading:Building:Detailed,
    Shading Surface 70,      !- Name
    ,                        !- Transmittance Schedule Name
    ,                        !- Number of Vertices
    52.1665759589019,-38.2044485954858,12,  !- X,Y,Z ==> Vertex 1 {m}
    52.1665759589019,-38.2044485954858,0,  !- X,Y,Z ==> Vertex 2 {m}
    56.7719606299639,-36.7606342755724,0,  !- X,Y,Z ==> Vertex 3 {m}
    56.7719606299639,-36.7606342755724,12;  !- X,Y,Z ==> Vertex 4 {m}

  Shading:Building:Detailed,
    Shading Surface 71,      !- Name
    ,                        !- Transmittance Schedule Name
    ,                        !- Number of Vertices
    58.5302151290376,-15.7702828509007,0,  !- X,Y,Z ==> Vertex 1 {m}
    60.3724148777249,-21.4343271666159,0,  !- X,Y,Z ==> Vertex 2 {m}
    59.5351630771821,-32.5403327253513,0,  !- X,Y,Z ==> Vertex 3 {m}
    57.0231369807153,-33.3177727698703,0,  !- X,Y,Z ==> Vertex 4 {m}
    56.7719606299639,-36.7606342755724,0,  !- X,Y,Z ==> Vertex 5 {m}
    52.1665759589019,-38.2044485954858,0,  !- X,Y,Z ==> Vertex 6 {m}
    51.8316657951499,-42.0915504388713,0,  !- X,Y,Z ==> Vertex 7 {m}
    45.2166521111204,-44.2017343006415,0,  !- X,Y,Z ==> Vertex 8 {m}
    44.6305573876138,-51.864876739061,0,  !- X,Y,Z ==> Vertex 9 {m}
    41.9510479692471,-51.6427727373213,0,  !- X,Y,Z ==> Vertex 10 {m}
    41.1974948813765,-61.9713553097395,0,  !- X,Y,Z ==> Vertex 11 {m}
    47.8125434446701,-62.5266147000208,0,  !- X,Y,Z ==> Vertex 12 {m}
    56.772379690166,-90.4026046764728,0,  !- X,Y,Z ==> Vertex 13 {m}
    56.1025676947613,-99.2874078527237,0,  !- X,Y,Z ==> Vertex 14 {m}
    38.5181743306745,-98.0658626165797,0,  !- X,Y,Z ==> Vertex 15 {m}
    38.3507192452675,-100.953422821733,0,  !- X,Y,Z ==> Vertex 16 {m}
    16.7470351337021,-99.2876051136469,0,  !- X,Y,Z ==> Vertex 17 {m}
    21.4360238088159,-37.8714242650698,0,  !- X,Y,Z ==> Vertex 18 {m}
    20.4312014500964,-34.7617475831388,0,  !- X,Y,Z ==> Vertex 19 {m}
    22.8594975375731,-33.9843204544556,0,  !- X,Y,Z ==> Vertex 20 {m}
    24.3666475200438,-13.2160979674907,0;  !- X,Y,Z ==> Vertex 21 {m}

  Shading:Building:Detailed,
    Shading Surface 72,      !- Name
    ,                        !- Transmittance Schedule Name
    ,                        !- Number of Vertices
    44.6305573876138,-51.864876739061,12,  !- X,Y,Z ==> Vertex 1 {m}
    44.6305573876138,-51.864876739061,0,  !- X,Y,Z ==> Vertex 2 {m}
    45.2166521111204,-44.2017343006415,0,  !- X,Y,Z ==> Vertex 3 {m}
    45.2166521111204,-44.2017343006415,12;  !- X,Y,Z ==> Vertex 4 {m}

  Shading:Building:Detailed,
    Shading Surface 73,      !- Name
    ,                        !- Transmittance Schedule Name
    ,                        !- Number of Vertices
    22.8594975375731,-33.9843204544556,12,  !- X,Y,Z ==> Vertex 1 {m}
    22.8594975375731,-33.9843204544556,0,  !- X,Y,Z ==> Vertex 2 {m}
    20.4312014500964,-34.7617475831388,0,  !- X,Y,Z ==> Vertex 3 {m}
    20.4312014500964,-34.7617475831388,12;  !- X,Y,Z ==> Vertex 4 {m}

  Shading:Building:Detailed,
    Shading Surface 74,      !- Name
    ,                        !- Transmittance Schedule Name
    ,                        !- Number of Vertices
    56.772379690166,-90.4026046764728,12,  !- X,Y,Z ==> Vertex 1 {m}
    56.772379690166,-90.4026046764728,0,  !- X,Y,Z ==> Vertex 2 {m}
    47.8125434446701,-62.5266147000208,0,  !- X,Y,Z ==> Vertex 3 {m}
    47.8125434446701,-62.5266147000208,12;  !- X,Y,Z ==> Vertex 4 {m}

  Shading:Building:Detailed,
    Shading Surface 75,      !- Name
    ,                        !- Transmittance Schedule Name
    ,                        !- Number of Vertices
    16.7470351337021,-99.2876051136469,12,  !- X,Y,Z ==> Vertex 1 {m}
    16.7470351337021,-99.2876051136469,0,  !- X,Y,Z ==> Vertex 2 {m}
    38.3507192452675,-100.953422821733,0,  !- X,Y,Z ==> Vertex 3 {m}
    38.3507192452675,-100.953422821733,12;  !- X,Y,Z ==> Vertex 4 {m}

  Shading:Building:Detailed,
    Shading Surface 76,      !- Name
    ,                        !- Transmittance Schedule Name
    ,                        !- Number of Vertices
    38.5181743306745,-98.0658626165797,12,  !- X,Y,Z ==> Vertex 1 {m}
    38.5181743306745,-98.0658626165797,0,  !- X,Y,Z ==> Vertex 2 {m}
    56.1025676947613,-99.2874078527237,0,  !- X,Y,Z ==> Vertex 3 {m}
    56.1025676947613,-99.2874078527237,12;  !- X,Y,Z ==> Vertex 4 {m}

  Shading:Building:Detailed,
    Shading Surface 77,      !- Name
    ,                        !- Transmittance Schedule Name
    ,                        !- Number of Vertices
    47.8125434446701,-62.5266147000208,12,  !- X,Y,Z ==> Vertex 1 {m}
    47.8125434446701,-62.5266147000208,0,  !- X,Y,Z ==> Vertex 2 {m}
    41.1974948813765,-61.9713553097395,0,  !- X,Y,Z ==> Vertex 3 {m}
    41.1974948813765,-61.9713553097395,12;  !- X,Y,Z ==> Vertex 4 {m}

  Shading:Building:Detailed,
    Shading Surface 78,      !- Name
    ,                        !- Transmittance Schedule Name
    ,                        !- Number of Vertices
    21.4360238088159,-37.8714242650698,12,  !- X,Y,Z ==> Vertex 1 {m}
    21.4360238088159,-37.8714242650698,0,  !- X,Y,Z ==> Vertex 2 {m}
    16.7470351337021,-99.2876051136469,0,  !- X,Y,Z ==> Vertex 3 {m}
    16.7470351337021,-99.2876051136469,12;  !- X,Y,Z ==> Vertex 4 {m}

  Shading:Building:Detailed,
    Shading Surface 79,      !- Name
    ,                        !- Transmittance Schedule Name
    ,                        !- Number of Vertices
    51.8316657951499,-42.0915504388713,12,  !- X,Y,Z ==> Vertex 1 {m}
    51.8316657951499,-42.0915504388713,0,  !- X,Y,Z ==> Vertex 2 {m}
    52.1665759589019,-38.2044485954858,0,  !- X,Y,Z ==> Vertex 3 {m}
    52.1665759589019,-38.2044485954858,12;  !- X,Y,Z ==> Vertex 4 {m}

  Shading:Building:Detailed,
    Shading Surface 80,      !- Name
    ,                        !- Transmittance Schedule Name
    ,                        !- Number of Vertices
    45.2166521111204,-44.2017343006415,12,  !- X,Y,Z ==> Vertex 1 {m}
    45.2166521111204,-44.2017343006415,0,  !- X,Y,Z ==> Vertex 2 {m}
    51.8316657951499,-42.0915504388713,0,  !- X,Y,Z ==> Vertex 3 {m}
    51.8316657951499,-42.0915504388713,12;  !- X,Y,Z ==> Vertex 4 {m}

  Shading:Building:Detailed,
    Shading Surface 81,      !- Name
    ,                        !- Transmittance Schedule Name
    ,                        !- Number of Vertices
    60.3724148777249,-21.4343271666159,12,  !- X,Y,Z ==> Vertex 1 {m}
    60.3724148777249,-21.4343271666159,0,  !- X,Y,Z ==> Vertex 2 {m}
    58.5302151290376,-15.7702828509007,0,  !- X,Y,Z ==> Vertex 3 {m}
    58.5302151290376,-15.7702828509007,12;  !- X,Y,Z ==> Vertex 4 {m}

  Shading:Building:Detailed,
    Shading Surface 82,      !- Name
    ,                        !- Transmittance Schedule Name
    ,                        !- Number of Vertices
    56.1025676947613,-99.2874078527237,12,  !- X,Y,Z ==> Vertex 1 {m}
    56.1025676947613,-99.2874078527237,0,  !- X,Y,Z ==> Vertex 2 {m}
    56.772379690166,-90.4026046764728,0,  !- X,Y,Z ==> Vertex 3 {m}
    56.772379690166,-90.4026046764728,12;  !- X,Y,Z ==> Vertex 4 {m}

  Shading:Building:Detailed,
    Shading Surface 83,      !- Name
    ,                        !- Transmittance Schedule Name
    ,                        !- Number of Vertices
    24.3666475200438,-13.2160979674907,12,  !- X,Y,Z ==> Vertex 1 {m}
    22.8594975375731,-33.9843204544556,12,  !- X,Y,Z ==> Vertex 2 {m}
    20.4312014500964,-34.7617475831388,12,  !- X,Y,Z ==> Vertex 3 {m}
    21.4360238088159,-37.8714242650698,12,  !- X,Y,Z ==> Vertex 4 {m}
    16.7470351337021,-99.2876051136469,12,  !- X,Y,Z ==> Vertex 5 {m}
    38.3507192452675,-100.953422821733,12,  !- X,Y,Z ==> Vertex 6 {m}
    38.5181743306745,-98.0658626165797,12,  !- X,Y,Z ==> Vertex 7 {m}
    56.1025676947613,-99.2874078527237,12,  !- X,Y,Z ==> Vertex 8 {m}
    56.772379690166,-90.4026046764728,12,  !- X,Y,Z ==> Vertex 9 {m}
    47.8125434446701,-62.5266147000208,12,  !- X,Y,Z ==> Vertex 10 {m}
    41.1974948813765,-61.9713553097395,12,  !- X,Y,Z ==> Vertex 11 {m}
    41.9510479692471,-51.6427727373213,12,  !- X,Y,Z ==> Vertex 12 {m}
    44.6305573876138,-51.864876739061,12,  !- X,Y,Z ==> Vertex 13 {m}
    45.2166521111204,-44.2017343006415,12,  !- X,Y,Z ==> Vertex 14 {m}
    51.8316657951499,-42.0915504388713,12,  !- X,Y,Z ==> Vertex 15 {m}
    52.1665759589019,-38.2044485954858,12,  !- X,Y,Z ==> Vertex 16 {m}
    56.7719606299639,-36.7606342755724,12,  !- X,Y,Z ==> Vertex 17 {m}
    57.0231369807153,-33.3177727698703,12,  !- X,Y,Z ==> Vertex 18 {m}
    59.5351630771821,-32.5403327253513,12,  !- X,Y,Z ==> Vertex 19 {m}
    60.3724148777249,-21.4343271666159,12,  !- X,Y,Z ==> Vertex 20 {m}
    58.5302151290376,-15.7702828509007,12;  !- X,Y,Z ==> Vertex 21 {m}

  Shading:Building:Detailed,
    Shading Surface 84,      !- Name
    ,                        !- Transmittance Schedule Name
    ,                        !- Number of Vertices
    59.5351630771821,-32.5403327253513,12,  !- X,Y,Z ==> Vertex 1 {m}
    59.5351630771821,-32.5403327253513,0,  !- X,Y,Z ==> Vertex 2 {m}
    60.3724148777249,-21.4343271666159,0,  !- X,Y,Z ==> Vertex 3 {m}
    60.3724148777249,-21.4343271666159,12;  !- X,Y,Z ==> Vertex 4 {m}

  Shading:Building:Detailed,
    Shading Surface 85,      !- Name
    ,                        !- Transmittance Schedule Name
    ,                        !- Number of Vertices
    58.5302151290376,-15.7702828509007,12,  !- X,Y,Z ==> Vertex 1 {m}
    58.5302151290376,-15.7702828509007,0,  !- X,Y,Z ==> Vertex 2 {m}
    24.3666475200438,-13.2160979674907,0,  !- X,Y,Z ==> Vertex 3 {m}
    24.3666475200438,-13.2160979674907,12;  !- X,Y,Z ==> Vertex 4 {m}

  Shading:Building:Detailed,
    Shading Surface 86,      !- Name
    ,                        !- Transmittance Schedule Name
    ,                        !- Number of Vertices
    56.7719606299639,-36.7606342755724,12,  !- X,Y,Z ==> Vertex 1 {m}
    56.7719606299639,-36.7606342755724,0,  !- X,Y,Z ==> Vertex 2 {m}
    57.0231369807153,-33.3177727698703,0,  !- X,Y,Z ==> Vertex 3 {m}
    57.0231369807153,-33.3177727698703,12;  !- X,Y,Z ==> Vertex 4 {m}

  Shading:Building:Detailed,
    Shading Surface 87,      !- Name
    ,                        !- Transmittance Schedule Name
    ,                        !- Number of Vertices
    188.742933599072,-247.43916133261,12,  !- X,Y,Z ==> Vertex 1 {m}
    188.742933599072,-247.43916133261,0,  !- X,Y,Z ==> Vertex 2 {m}
    189.747390538066,-232.668161915251,0,  !- X,Y,Z ==> Vertex 3 {m}