  ConvergenceLimits,
    0,                       !- Minimum System Timestep {minutes}
    25;                      !- Maximum HVAC Iterations

  Version,23.1;

  Timestep,1;

  LifeCycleCost:Parameters,
    Life Cycle Cost Parameters,  !- Name
    EndOfYear,               !- Discounting Convention
    ConstantDollar,          !- Inflation Approach
    0.03,                    !- Real Discount Rate
    ,                        !- Nominal Discount Rate
    ,                        !- Inflation
    ,                        !- Base Date Month
    2011,                    !- Base Date Year
    ,                        !- Service Date Month
    2011,                    !- Service Date Year
    25,                      !- Length of Study Period in Years
    ,                        !- Tax rate
    None;                    !- Depreciation Method

  LifeCycleCost:UsePriceEscalation,
    U.S. Avg  Commercial-Electricity,  !- LCC Price Escalation Name
    Electricity,             !- Resource
    2011,                    !- Escalation Start Year
    January,                 !- Escalation Start Month
    0.9838,                  !- Year 1 Escalation
    0.9730,                  !- Year 2 Escalation
    0.9632,                  !- Year 3 Escalation
    0.9611,                  !- Year 4 Escalation
    0.9571,                  !- Year 5 Escalation
    0.9553,                  !- Year 6 Escalation
    0.9539,                  !- Year 7 Escalation
    0.9521,                  !- Year 8 Escalation
    0.9546,                  !- Year 9 Escalation
    0.9550,                  !- <none>
    0.9553,                  !- <none>
    0.9564,                  !- <none>
    0.9575,                  !- <none>
    0.9596,                  !- <none>
    0.9618,                  !- <none>
    0.9614,                  !- <none>
    0.9618,                  !- <none>
    0.9618,                  !- <none>
    0.9593,                  !- <none>
    0.9589,                  !- <none>
    0.9607,                  !- <none>
    0.9625,                  !- <none>
    0.9650,                  !- <none>
    0.9708,                  !- <none>
    0.9751,                  !- <none>
    0.9762,                  !- <none>
    0.9766,                  !- <none>
    0.9766,                  !- <none>
    0.9769,                  !- <none>
    0.9773;                  !- <none>

  LifeCycleCost:UsePriceEscalation,
    U.S. Avg  Commercial-Distillate Oil,  !- LCC Price Escalation Name
    FuelOilNo1,              !- Resource
    2011,                    !- Escalation Start Year
    January,                 !- Escalation Start Month
    0.9714,                  !- Year 1 Escalation
    0.9730,                  !- Year 2 Escalation
    0.9942,                  !- Year 3 Escalation
    1.0164,                  !- Year 4 Escalation
    1.0541,                  !- Year 5 Escalation
    1.0928,                  !- Year 6 Escalation
    1.1267,                  !- Year 7 Escalation
    1.1580,                  !- Year 8 Escalation
    1.1792,                  !- Year 9 Escalation
    1.1967,                  !- <none>
    1.2200,                  !- <none>
    1.2333,                  !- <none>
    1.2566,                  !- <none>
    1.2709,                  !- <none>
    1.2826,                  !- <none>
    1.2985,                  !- <none>
    1.3102,                  !- <none>
    1.3250,                  !- <none>
    1.3261,                  !- <none>
    1.3282,                  !- <none>
    1.3324,                  !- <none>
    1.3356,                  !- <none>
    1.3431,                  !- <none>
    1.3510,                  !- <none>
    1.3568,                  !- <none>
    1.3606,                  !- <none>
    1.3637,                  !- <none>
    1.3674,                  !- <none>
    1.3706,                  !- <none>
    1.3743;                  !- <none>

  LifeCycleCost:UsePriceEscalation,
    U.S. Avg  Commercial-Residual Oil,  !- LCC Price Escalation Name
    FuelOilNo2,              !- Resource
    2011,                    !- Escalation Start Year
    January,                 !- Escalation Start Month
    0.8469,                  !- Year 1 Escalation
    0.8257,                  !- Year 2 Escalation
    0.8681,                  !- Year 3 Escalation
    0.8988,                  !- Year 4 Escalation
    0.9289,                  !- Year 5 Escalation
    0.9604,                  !- Year 6 Escalation
    0.9897,                  !- Year 7 Escalation
    1.0075,                  !- Year 8 Escalation
    1.0314,                  !- Year 9 Escalation
    1.0554,                  !- <none>
    1.0861,                  !- <none>
    1.1278,                  !- <none>
    1.1497,                  !- <none>
    1.1620,                  !- <none>
    1.1743,                  !- <none>
    1.1852,                  !- <none>
    1.1948,                  !- <none>
    1.2037,                  !- <none>
    1.2071,                  !- <none>
    1.2119,                  !- <none>
    1.2139,                  !- <none>
    1.2194,                  !- <none>
    1.2276,                  !- <none>
    1.2365,                  !- <none>
    1.2420,                  !- <none>
    1.2461,                  !- <none>
    1.2509,                  !- <none>
    1.2550,                  !- <none>
    1.2591,                  !- <none>
    1.2638;                  !- <none>

  LifeCycleCost:UsePriceEscalation,
    U.S. Avg  Commercial-Natural gas,  !- LCC Price Escalation Name
    NaturalGas,              !- Resource
    2011,                    !- Escalation Start Year
    January,                 !- Escalation Start Month
    0.9823,                  !- Year 1 Escalation
    0.9557,                  !- Year 2 Escalation
    0.9279,                  !- Year 3 Escalation
    0.9257,                  !- Year 4 Escalation
    0.9346,                  !- Year 5 Escalation
    0.9412,                  !- Year 6 Escalation
    0.9512,                  !- Year 7 Escalation
    0.9645,                  !- Year 8 Escalation
    0.9856,                  !- Year 9 Escalation
    1.0067,                  !- <none>
    1.0222,                  !- <none>
    1.0410,                  !- <none>
    1.0610,                  !- <none>
    1.0787,                  !- <none>
    1.0942,                  !- <none>
    1.1098,                  !- <none>
    1.1220,                  !- <none>
    1.1308,                  !- <none>
    1.1386,                  !- <none>
    1.1486,                  !- <none>
    1.1619,                  !- <none>
    1.1763,                  !- <none>
    1.1918,                  !- <none>
    1.2118,                  !- <none>
    1.2284,                  !- <none>
    1.2439,                  !- <none>
    1.2605,                  !- <none>
    1.2772,                  !- <none>
    1.2938,                  !- <none>
    1.3115;                  !- <none>

  LifeCycleCost:UsePriceEscalation,
    U.S. Avg  Commercial-Coal,  !- LCC Price Escalation Name
    Coal,                    !- Resource
    2011,                    !- Escalation Start Year
    January,                 !- Escalation Start Month
    0.9970,                  !- Year 1 Escalation
    1.0089,                  !- Year 2 Escalation
    1.0089,                  !- Year 3 Escalation
    0.9941,                  !- Year 4 Escalation
    0.9941,                  !- Year 5 Escalation
    1.0000,                  !- Year 6 Escalation
    1.0030,                  !- Year 7 Escalation
    1.0059,                  !- Year 8 Escalation
    1.0089,                  !- Year 9 Escalation
    1.0119,                  !- <none>
    1.0148,                  !- <none>
    1.0178,                  !- <none>
    1.0208,                  !- <none>
    1.0267,                  !- <none>
    1.0297,                  !- <none>
    1.0356,                  !- <none>
    1.0415,                  !- <none>
    1.0534,                  !- <none>
    1.0564,                  !- <none>
    1.0593,                  !- <none>
    1.0653,                  !- <none>
    1.0712,                  !- <none>
    1.0742,                  !- <none>
    1.0801,                  !- <none>
    1.0831,                  !- <none>
    1.0831,                  !- <none>
    1.0861,                  !- <none>
    1.0890,                  !- <none>
    1.0920,                  !- <none>
    1.0950;                  !- <none>

  Building,
    bld_23,                  !- Name
    ,                        !- North Axis {deg}
    City,                    !- Terrain
    ,                        !- Loads Convergence Tolerance Value {W}
    ,                        !- Temperature Convergence Tolerance Value {deltaC}
    ,                        !- Solar Distribution
    ,                        !- Maximum Number of Warmup Days
    ;                        !- Minimum Number of Warmup Days

  Shading:Building:Detailed,
    Shading Surface 1,       !- Name
    ,                        !- Transmittance Schedule Name
    ,                        !- Number of Vertices
    285.529059199308,-18.0971721192333,12,  !- X,Y,Z ==> Vertex 1 {m}
    285.529059199308,-18.0971721192333,0,  !- X,Y,Z ==> Vertex 2 {m}
    284.943665137703,-36.8663363412746,0,  !- X,Y,Z ==> Vertex 3 {m}
    284.943665137703,-36.8663363412746,12;  !- X,Y,Z ==> Vertex 4 {m}

  Shading:Building:Detailed,
    Shading Surface 2,       !- Name
    ,                        !- Transmittance Schedule Name
    ,                        !- Number of Vertices
    294.153552960293,-18.3189481397515,12,  !- X,Y,Z ==> Vertex 1 {m}
    294.153552960293,-18.3189481397515,0,  !- X,Y,Z ==> Vertex 2 {m}
    285.529059199308,-18.0971721192333,0,  !- X,Y,Z ==> Vertex 3 {m}
    285.529059199308,-18.0971721192333,12;  !- X,Y,Z ==> Vertex 4 {m}

  Shading:Building:Detailed,
    Shading Surface 3,       !- Name
    ,                        !- Transmittance Schedule Name
    ,                        !- Number of Vertices
    285.529059199308,-18.0971721192333,12,  !- X,Y,Z ==> Vertex 1 {m}
    284.943665137703,-36.8663363412746,12,  !- X,Y,Z ==> Vertex 2 {m}
    293.568181155539,-37.0881130501954,12,  !- X,Y,Z ==> Vertex 3 {m}
    294.153552960293,-18.3189481397515,12;  !- X,Y,Z ==> Vertex 4 {m}

  Shading:Building:Detailed,
    Shading Surface 4,       !- Name
    ,                        !- Transmittance Schedule Name
    ,                        !- Number of Vertices
    284.943665137703,-36.8663363412746,12,  !- X,Y,Z ==> Vertex 1 {m}
    284.943665137703,-36.8663363412746,0,  !- X,Y,Z ==> Vertex 2 {m}
    293.568181155539,-37.0881130501954,0,  !- X,Y,Z ==> Vertex 3 {m}
    293.568181155539,-37.0881130501954,12;  !- X,Y,Z ==> Vertex 4 {m}

  Shading:Building:Detailed,
    Shading Surface 5,       !- Name
    ,                        !- Transmittance Schedule Name
    ,                        !- Number of Vertices
    293.568181155539,-37.0881130501954,12,  !- X,Y,Z ==> Vertex 1 {m}
    293.568181155539,-37.0881130501954,0,  !- X,Y,Z ==> Vertex 2 {m}
    294.153552960293,-18.3189481397515,0,  !- X,Y,Z ==> Vertex 3 {m}
    294.153552960293,-18.3189481397515,12;  !- X,Y,Z ==> Vertex 4 {m}

  Shading:Building:Detailed,
    Shading Surface 6,       !- Name
    ,                        !- Transmittance Schedule Name
    ,                        !- Number of Vertices
    294.153552960293,-18.3189481397515,0,  !- X,Y,Z ==> Vertex 1 {m}
    293.568181155539,-37.0881130501954,0,  !- X,Y,Z ==> Vertex 2 {m}
    284.943665137703,-36.8663363412746,0,  !- X,Y,Z ==> Vertex 3 {m}
    285.529059199308,-18.0971721192333,0;  !- X,Y,Z ==> Vertex 4 {m}

  Shading:Building:Detailed,
    Shading Surface 40,      !- Name
    ,                        !- Transmittance Schedule Name
    ,                        !- Number of Vertices
    62.9681284352623,-135.381867506131,0,  !- X,Y,Z ==> Vertex 1 {m}
    64.8103316429187,-141.045910695168,0,  !- X,Y,Z ==> Vertex 2 {m}
    63.973086624711,-152.151916762517,0,  !- X,Y,Z ==> Vertex 3 {m}
    61.4610610030357,-152.929358341364,0,  !- X,Y,Z ==> Vertex 4 {m}
    61.2098867548048,-156.372219999538,0,  !- X,Y,Z ==> Vertex 5 {m}
    56.6045029654938,-157.816037132311,0,  !- X,Y,Z ==> Vertex 6 {m}
    56.2695951755533,-161.703139179131,0,  !- X,Y,Z ==> Vertex 7 {m}
    49.6545827802266,-163.813327081034,0,  !- X,Y,Z ==> Vertex 8 {m}
    49.0684927365118,-171.47646987502,0,  !- X,Y,Z ==> Vertex 9 {m}
    46.3889831825228,-171.254367510088,0,  !- X,Y,Z ==> Vertex 10 {m}
    45.6354364021868,-181.582950539238,0,  !- X,Y,Z ==> Vertex 11 {m}
    52.2504853045349,-182.138205888601,0,  !- X,Y,Z ==> Vertex 12 {m}
    61.2103385734206,-210.01419038062,0,  !- X,Y,Z ==> Vertex 13 {m}
    60.5405320038171,-218.89899396198,0,  !- X,Y,Z ==> Vertex 14 {m}
    42.956137893852,-217.677459467755,0,  !- X,Y,Z ==> Vertex 15 {m}
    42.7886845718278,-220.565019773834,0,  !- X,Y,Z ==> Vertex 16 {m}
    21.1849994430511,-218.899215261791,0,  !- X,Y,Z ==> Vertex 17 {m}
    25.8739506121696,-157.48303157266,0,  !- X,Y,Z ==> Vertex 18 {m}
    24.8691263544068,-154.373355505326,0,  !- X,Y,Z ==> Vertex 19 {m}
    27.2974219671102,-153.595926893729,0,  !- X,Y,Z ==> Vertex 20 {m}
    28.8045592666179,-132.827703491354,0;  !- X,Y,Z ==> Vertex 21 {m}

  Shading:Building:Detailed,
    Shading Surface 41,      !- Name
    ,                        !- Transmittance Schedule Name
    ,                        !- Number of Vertices
    61.4610610030357,-152.929358341364,12,  !- X,Y,Z ==> Vertex 1 {m}
    61.4610610030357,-152.929358341364,0,  !- X,Y,Z ==> Vertex 2 {m}
    63.973086624711,-152.151916762517,0,  !- X,Y,Z ==> Vertex 3 {m}
    63.973086624711,-152.151916762517,12;  !- X,Y,Z ==> Vertex 4 {m}

  Shading:Building:Detailed,
    Shading Surface 42,      !- Name
    ,                        !- Transmittance Schedule Name
    ,                        !- Number of Vertices
    61.2098867548048,-156.372219999538,12,  !- X,Y,Z ==> Vertex 1 {m}
    61.2098867548048,-156.372219999538,0,  !- X,Y,Z ==> Vertex 2 {m}
    61.4610610030357,-152.929358341364,0,  !- X,Y,Z ==> Vertex 3 {m}
    61.4610610030357,-152.929358341364,12;  !- X,Y,Z ==> Vertex 4 {m}

  Shading:Building:Detailed,
    Shading Surface 43,      !- Name
    ,                        !- Transmittance Schedule Name
    ,                        !- Number of Vertices
    49.0684927365118,-171.47646987502,12,  !- X,Y,Z ==> Vertex 1 {m}
    49.0684927365118,-171.47646987502,0,  !- X,Y,Z ==> Vertex 2 {m}
    49.6545827802266,-163.813327081034,0,  !- X,Y,Z ==> Vertex 3 {m}
    49.6545827802266,-163.813327081034,12;  !- X,Y,Z ==> Vertex 4 {m}

  Shading:Building:Detailed,
    Shading Surface 44,      !- Name
    ,                        !- Transmittance Schedule Name
    ,                        !- Number of Vertices
    46.3889831825228,-171.254367510088,12,  !- X,Y,Z ==> Vertex 1 {m}
    46.3889831825228,-171.254367510088,0,  !- X,Y,Z ==> Vertex 2 {m}
    49.0684927365118,-171.47646987502,0,  !- X,Y,Z ==> Vertex 3 {m}
    49.0684927365118,-171.47646987502,12;  !- X,Y,Z ==> Vertex 4 {m}

  Shading:Building:Detailed,
    Shading Surface 45,      !- Name
    ,                        !- Transmittance Schedule Name
    ,                        !- Number of Vertices
    45.6354364021868,-181.582950539238,12,  !- X,Y,Z ==> Vertex 1 {m}
    45.6354364021868,-181.582950539238,0,  !- X,Y,Z ==> Vertex 2 {m}
    46.3889831825228,-171.254367510088,0,  !- X,Y,Z ==> Vertex 3 {m}
    46.3889831825228,-171.254367510088,12;  !- X,Y,Z ==> Vertex 4 {m}

  Shading:Building:Detailed,
    Shading Surface 46,      !- Name
    ,                        !- Transmittance Schedule Name
    ,                        !- Number of Vertices
    61.2103385734206,-210.01419038062,12,  !- X,Y,Z ==> Vertex 1 {m}
    61.2103385734206,-210.01419038062,0,  !- X,Y,Z ==> Vertex 2 {m}
    52.2504853045349,-182.138205888601,0,  !- X,Y,Z ==> Vertex 3 {m}
    52.2504853045349,-182.138205888601,12;  !- X,Y,Z ==> Vertex 4 {m}

  Shading:Building:Detailed,
    Shading Surface 47,      !- Name
    ,                        !- Transmittance Schedule Name
    ,                        !- Number of Vertices
    60.5405320038171,-218.89899396198,12,  !- X,Y,Z ==> Vertex 1 {m}
    60.5405320038171,-218.89899396198,0,  !- X,Y,Z ==> Vertex 2 {m}
    61.2103385734206,-210.01419038062,0,  !- X,Y,Z ==> Vertex 3 {m}
    61.2103385734206,-210.01419038062,12;  !- X,Y,Z ==> Vertex 4 {m}

  Shading:Building:Detailed,
    Shading Surface 48,      !- Name
    ,                        !- Transmittance Schedule Name
    ,                        !- Number of Vertices
    63.973086624711,-152.151916762517,12,  !- X,Y,Z ==> Vertex 1 {m}
    63.973086624711,-152.151916762517,0,  !- X,Y,Z ==> Vertex 2 {m}
    64.8103316429187,-141.045910695168,0,  !- X,Y,Z ==> Vertex 3 {m}
    64.8103316429187,-141.045910695168,12;  !- X,Y,Z ==> Vertex 4 {m}

  Shading:Building:Detailed,
    Shading Surface 49,      !- Name
    ,                        !- Transmittance Schedule Name
    ,                        !- Number of Vertices
    56.6045029654938,-157.816037132311,12,  !- X,Y,Z ==> Vertex 1 {m}
    56.6045029654938,-157.816037132311,0,  !- X,Y,Z ==> Vertex 2 {m}
    61.2098867548048,-156.372219999538,0,  !- X,Y,Z ==> Vertex 3 {m}
    61.2098867548048,-156.372219999538,12;  !- X,Y,Z ==> Vertex 4 {m}

  Shading:Building:Detailed,
    Shading Surface 50,      !- Name
    ,                        !- Transmittance Schedule Name
    ,                        !- Number of Vertices
    56.2695951755533,-161.703139179131,12,  !- X,Y,Z ==> Vertex 1 {m}
    56.2695951755533,-161.703139179131,0,  !- X,Y,Z ==> Vertex 2 {m}
    56.6045029654938,-157.816037132311,0,  !- X,Y,Z ==> Vertex 3 {m}
    56.6045029654938,-157.816037132311,12;  !- X,Y,Z ==> Vertex 4 {m}

  Shading:Building:Detailed,
    Shading Surface 51,      !- Name
    ,                        !- Transmittance Schedule Name
    ,                        !- Number of Vertices
    49.6545827802266,-163.813327081034,12,  !- X,Y,Z ==> Vertex 1 {m}
    49.6545827802266,-163.813327081034,0,  !- X,Y,Z ==> Vertex 2 {m}
    56.2695951755533,-161.703139179131,0,  !- X,Y,Z ==> Vertex 3 {m}
    56.2695951755533,-161.703139179131,12;  !- X,Y,Z ==> Vertex 4 {m}

  Shading:Building:Detailed,
    Shading Surface 52,      !- Name
    ,                        !- Transmittance Schedule Name
    ,                        !- Number of Vertices
    52.2504853045349,-182.138205888601,12,  !- X,Y,Z ==> Vertex 1 {m}
    52.2504853045349,-182.138205888601,0,  !- X,Y,Z ==> Vertex 2 {m}
    45.6354364021868,-181.582950539238,0,  !- X,Y,Z ==> Vertex 3 {m}
    45.6354364021868,-181.582950539238,12;  !- X,Y,Z ==> Vertex 4 {m}

  Shading:Building:Detailed,
    Shading Surface 53,      !- Name
    ,                        !- Transmittance Schedule Name
    ,                        !- Number of Vertices
    42.7886845718278,-220.565019773834,12,  !- X,Y,Z ==> Vertex 1 {m}
    42.7886845718278,-220.565019773834,0,  !- X,Y,Z ==> Vertex 2 {m}
    42.956137893852,-217.677459467755,0,  !- X,Y,Z ==> Vertex 3 {m}
    42.956137893852,-217.677459467755,12;  !- X,Y,Z ==> Vertex 4 {m}

  Shading:Building:Detailed,
    Shading Surface 54,      !- Name
    ,                        !- Transmittance Schedule Name
    ,                        !- Number of Vertices
    21.1849994430511,-218.899215261791,12,  !- X,Y,Z ==> Vertex 1 {m}
    21.1849994430511,-218.899215261791,0,  !- X,Y,Z ==> Vertex 2 {m}
    42.7886845718278,-220.565019773834,0,  !- X,Y,Z ==> Vertex 3 {m}
    42.7886845718278,-220.565019773834,12;  !- X,Y,Z ==> Vertex 4 {m}

  Shading:Building:Detailed,
    Shading Surface 55,      !- Name
    ,                        !- Transmittance Schedule Name
    ,                        !- Number of Vertices
    25.8739506121696,-157.48303157266,12,  !- X,Y,Z ==> Vertex 1 {m}
    25.8739506121696,-157.48303157266,0,  !- X,Y,Z ==> Vertex 2 {m}
    21.1849994430511,-218.899215261791,0,  !- X,Y,Z ==> Vertex 3 {m}
    21.1849994430511,-218.899215261791,12;  !- X,Y,Z ==> Vertex 4 {m}

  Shading:Building:Detailed,
    Shading Surface 56,      !- Name
    ,                        !- Transmittance Schedule Name
    ,                        !- Number of Vertices
    27.2974219671102,-153.595926893729,12,  !- X,Y,Z ==> Vertex 1 {m}
    27.2974219671102,-153.595926893729,0,  !- X,Y,Z ==> Vertex 2 {m}
    24.8691263544068,-154.373355505326,0,  !- X,Y,Z ==> Vertex 3 {m}
    24.8691263544068,-154.373355505326,12;  !- X,Y,Z ==> Vertex 4 {m}

  Shading:Building:Detailed,
    Shading Surface 57,      !- Name
    ,                        !- Transmittance Schedule Name
    ,                        !- Number of Vertices
    28.8045592666179,-132.827703491354,12,  !- X,Y,Z ==> Vertex 1 {m}
    28.8045592666179,-132.827703491354,0,  !- X,Y,Z ==> Vertex 2 {m}
    27.2974219671102,-153.595926893729,0,  !- X,Y,Z ==> Vertex 3 {m}
    27.2974219671102,-153.595926893729,12;  !- X,Y,Z ==> Vertex 4 {m}

  Shading:Building:Detailed,
    Shading Surface 58,      !- Name
    ,                        !- Transmittance Schedule Name
    ,                        !- Number of Vertices
    64.8103316429187,-141.045910695168,12,  !- X,Y,Z ==> Vertex 1 {m}
    64.8103316429187,-141.045910695168,0,  !- X,Y,Z ==> Vertex 2 {m}
    62.9681284352623,-135.381867506131,0,  !- X,Y,Z ==> Vertex 3 {m}
    62.9681284352623,-135.381867506131,12;  !- X,Y,Z ==> Vertex 4 {m}

  Shading:Building:Detailed,
    Shading Surface 59,      !- Name
    ,                        !- Transmittance Schedule Name
    ,                        !- Number of Vertices
    62.9681284352623,-135.381867506131,12,  !- X,Y,Z ==> Vertex 1 {m}
    62.9681284352623,-135.381867506131,0,  !- X,Y,Z ==> Vertex 2 {m}
    28.8045592666179,-132.827703491354,0,  !- X,Y,Z ==> Vertex 3 {m}
    28.8045592666179,-132.827703491354,12;  !- X,Y,Z ==> Vertex 4 {m}

  Shading:Building:Detailed,
    Shading Surface 60,      !- Name
    ,                        !- Transmittance Schedule Name
    ,                        !- Number of Vertices
    24.8691263544068,-154.373355505326,12,  !- X,Y,Z ==> Vertex 1 {m}
    24.8691263544068,-154.373355505326,0,  !- X,Y,Z ==> Vertex 2 {m}
    25.8739506121696,-157.48303157266,0,  !- X,Y,Z ==> Vertex 3 {m}
    25.8739506121696,-157.48303157266,12;  !- X,Y,Z ==> Vertex 4 {m}

  Shading:Building:Detailed,
    Shading Surface 61,      !- Name
    ,                        !- Transmittance Schedule Name
    ,                        !- Number of Vertices
    42.956137893852,-217.677459467755,12,  !- X,Y,Z ==> Vertex 1 {m}
    42.956137893852,-217.677459467755,0,  !- X,Y,Z ==> Vertex 2 {m}
    60.5405320038171,-218.89899396198,0,  !- X,Y,Z ==> Vertex 3 {m}
    60.5405320038171,-218.89899396198,12;  !- X,Y,Z ==> Vertex 4 {m}

  Shading:Building:Detailed,
    Shading Surface 62,      !- Name
    ,                        !- Transmittance Schedule Name
    ,                        !- Number of Vertices
    28.8045592666179,-132.827703491354,12,  !- X,Y,Z ==> Vertex 1 {m}
    27.2974219671102,-153.595926893729,12,  !- X,Y,Z ==> Vertex 2 {m}
    24.8691263544068,-154.373355505326,12,  !- X,Y,Z ==> Vertex 3 {m}
    25.8739506121696,-157.48303157266,12,  !- X,Y,Z ==> Vertex 4 {m}
    21.1849994430511,-218.899215261791,12,  !- X,Y,Z ==> Vertex 5 {m}
    42.7886845718278,-220.565019773834,12,  !- X,Y,Z ==> Vertex 6 {m}
    42.956137893852,-217.677459467755,12,  !- X,Y,Z ==> Vertex 7 {m}
    60.5405320038171,-218.89899396198,12,  !- X,Y,Z ==> Vertex 8 {m}
    61.2103385734206,-210.01419038062,12,  !- X,Y,Z ==> Vertex 9 {m}
    52.2504853045349,-182.138205888601,12,  !- X,Y,Z ==> Vertex 10 {m}
    45.6354364021868,-181.582950539238,12,  !- X,Y,Z ==> Vertex 11 {m}
    46.3889831825228,-171.254367510088,12,  !- X,Y,Z ==> Vertex 12 {m}
    49.0684927365118,-171.47646987502,12,  !- X,Y,Z ==> Vertex 13 {m}
    49.6545827802266,-163.813327081034,12,  !- X,Y,Z ==> Vertex 14 {m}
    56.2695951755533,-161.703139179131,12,  !- X,Y,Z ==> Vertex 15 {m}
    56.6045029654938,-157.816037132311,12,  !- X,Y,Z ==> Vertex 16 {m}
    61.2098867548048,-156.372219999538,12,  !- X,Y,Z ==> Vertex 17 {m}
    61.4610610030357,-152.929358341364,12,  !- X,Y,Z ==> Vertex 18 {m}
    63.973086624711,-152.151916762517,12,  !- X,Y,Z ==> Vertex 19 {m}
    64.8103316429187,-141.045910695168,12,  !- X,Y,Z ==> Vertex 20 {m}
    62.9681284352623,-135.381867506131,12;  !- X,Y,Z ==> Vertex 21 {m}

  Shading:Building:Detailed,
    Shading Surface 63,      !- Name
    ,                        !- Transmittance Schedule Name
    ,                        !- Number of Vertices
    20.0123898233721,-103.730015268425,12,  !- X,Y,Z ==> Vertex 1 {m}
    20.0123898233721,-103.730015268425,0,  !- X,Y,Z ==> Vertex 2 {m}
    22.6917845463692,-75.4097083017019,0,  !- X,Y,Z ==> Vertex 3 {m}
    22.6917845463692,-75.4097083017019,12;  !- X,Y,Z ==> Vertex 4 {m}

  Shading:Building:Detailed,
    Shading Surface 64,      !- Name
    ,                        !- Transmittance Schedule Name
    ,                        !- Number of Vertices
    23.6127901386394,-55.9742052594411,12,  !- X,Y,Z ==> Vertex 1 {m}
    23.1941364081006,-59.972366679005,12,  !- X,Y,Z ==> Vertex 2 {m}
    9.88053298192934,-58.7507369581051,12,  !- X,Y,Z ==> Vertex 3 {m}
    4.43790198018258,-116.835120623305,12,  !- X,Y,Z ==> Vertex 4 {m}
    33.8285487781716,-119.611543024557,12,  !- X,Y,Z ==> Vertex 5 {m}
    35.1682234132434,-105.173737644905,12,  !- X,Y,Z ==> Vertex 6 {m}
    20.0123898233721,-103.730015268425,12,  !- X,Y,Z ==> Vertex 7 {m}
    22.6917845463692,-75.4097083017019,12,  !- X,Y,Z ==> Vertex 8 {m}
    34.5819499998151,-76.5202614321115,12,  !- X,Y,Z ==> Vertex 9 {m}
    36.423990911661,-57.1958123627111,12;  !- X,Y,Z ==> Vertex 10 {m}

  Shading:Building:Detailed,
    Shading Surface 65,      !- Name
    ,                        !- Transmittance Schedule Name
    ,                        !- Number of Vertices
    23.6127901386394,-55.9742052594411,12,  !- X,Y,Z ==> Vertex 1 {m}
    23.6127901386394,-55.9742052594411,0,  !- X,Y,Z ==> Vertex 2 {m}
    23.1941364081006,-59.972366679005,0,  !- X,Y,Z ==> Vertex 3 {m}
    23.1941364081006,-59.972366679005,12;  !- X,Y,Z ==> Vertex 4 {m}

  Shading:Building:Detailed,
    Shading Surface 66,      !- Name
    ,                        !- Transmittance Schedule Name
    ,                        !- Number of Vertices
    36.423990911661,-57.1958123627111,12,  !- X,Y,Z ==> Vertex 1 {m}
    36.423990911661,-57.1958123627111,0,  !- X,Y,Z ==> Vertex 2 {m}
    23.6127901386394,-55.9742052594411,0,  !- X,Y,Z ==> Vertex 3 {m}
    23.6127901386394,-55.9742052594411,12;  !- X,Y,Z ==> Vertex 4 {m}

  Shading:Building:Detailed,
    Shading Surface 67,      !- Name
    ,                        !- Transmittance Schedule Name
    ,                        !- Number of Vertices
    35.1682234132434,-105.173737644905,12,  !- X,Y,Z ==> Vertex 1 {m}
    35.1682234132434,-105.173737644905,0,  !- X,Y,Z ==> Vertex 2 {m}
    20.0123898233721,-103.730015268425,0,  !- X,Y,Z ==> Vertex 3 {m}
    20.0123898233721,-103.730015268425,12;  !- X,Y,Z ==> Vertex 4 {m}

  Shading:Building:Detailed,
    Shading Surface 68,      !- Name
    ,                        !- Transmittance Schedule Name
    ,                        !- Number of Vertices
    9.88053298192934,-58.7507369581051,12,  !- X,Y,Z ==> Vertex 1 {m}
    9.88053298192934,-58.7507369581051,0,  !- X,Y,Z ==> Vertex 2 {m}
    4.43790198018258,-116.835120623305,0,  !- X,Y,Z ==> Vertex 3 {m}
    4.43790198018258,-116.835120623305,12;  !- X,Y,Z ==> Vertex 4 {m}

  Shading:Building:Detailed,
    Shading Surface 69,      !- Name
    ,                        !- Transmittance Schedule Name
    ,                        !- Number of Vertices
    36.423990911661,-57.1958123627111,0,  !- X,Y,Z ==> Vertex 1 {m}
    34.5819499998151,-76.5202614321115,0,  !- X,Y,Z ==> Vertex 2 {m}
    22.6917845463692,-75.4097083017019,0,  !- X,Y,Z ==> Vertex 3 {m}
    20.0123898233721,-103.730015268425,0,  !- X,Y,Z ==> Vertex 4 {m}
    35.1682234132434,-105.173737644905,0,  !- X,Y,Z ==> Vertex 5 {m}
    33.8285487781716,-119.611543024557,0,  !- X,Y,Z ==> Vertex 6 {m}
    4.43790198018258,-116.835120623305,0,  !- X,Y,Z ==> Vertex 7 {m}
    9.88053298192934,-58.7507369581051,0,  !- X,Y,Z ==> Vertex 8 {m}
    23.1941364081006,-59.972366679005,0,  !- X,Y,Z ==> Vertex 9 {m}
    23.6127901386394,-55.9742052594411,0;  !- X,Y,Z ==> Vertex 10 {m}

  Shading:Building:Detailed,
    Shading Surface 70,      !- Name
    ,                        !- Transmittance Schedule Name
    ,                        !- Number of Vertices
    34.5819499998151,-76.5202614321115,12,  !- X,Y,Z ==> Vertex 1 {m}
    34.5819499998151,-76.5202614321115,0,  !- X,Y,Z ==> Vertex 2 {m}
    36.423990911661,-57.1958123627111,0,  !- X,Y,Z ==> Vertex 3 {m}
    36.423990911661,-57.1958123627111,12;  !- X,Y,Z ==> Vertex 4 {m}

  Shading:Building:Detailed,
    Shading Surface 71,      !- Name
    ,                        !- Transmittance Schedule Name
    ,                        !- Number of Vertices
    4.43790198018258,-116.835120623305,12,  !- X,Y,Z ==> Vertex 1 {m}
    4.43790198018258,-116.835120623305,0,  !- X,Y,Z ==> Vertex 2 {m}
    33.8285487781716,-119.611543024557,0,  !- X,Y,Z ==> Vertex 3 {m}
    33.8285487781716,-119.611543024557,12;  !- X,Y,Z ==> Vertex 4 {m}

  Shading:Building:Detailed,
    Shading Surface 72,      !- Name
    ,                        !- Transmittance Schedule Name
    ,                        !- Number of Vertices
    22.6917845463692,-75.4097083017019,12,  !- X,Y,Z ==> Vertex 1 {m}
    22.6917845463692,-75.4097083017019,0,  !- X,Y,Z ==> Vertex 2 {m}
    34.5819499998151,-76.5202614321115,0,  !- X,Y,Z ==> Vertex 3 {m}
    34.5819499998151,-76.5202614321115,12;  !- X,Y,Z ==> Vertex 4 {m}

  Shading:Building:Detailed,
    Shading Surface 73,      !- Name