  ConvergenceLimits,
    0,                       !- Minimum System Timestep {minutes}
    25;                      !- Maximum HVAC Iterations

  Version,23.1;

  Timestep,1;

  LifeCycleCost:Parameters,
    Life Cycle Cost Parameters,  !- Name
    EndOfYear,               !- Discounting Convention
    ConstantDollar,          !- Inflation Approach
    0.03,                    !- Real Discount Rate
    ,                        !- Nominal Discount Rate
    ,                        !- Inflation
    ,                        !- Base Date Month
    2011,                    !- Base Date Year
    ,                        !- Service Date Month
    2011,                    !- Service Date Year
    25,                      !- Length of Study Period in Years
    ,                        !- Tax rate
    None;                    !- Depreciation Method

  LifeCycleCost:UsePriceEscalation,
    U.S. Avg  Commercial-Electricity,  !- LCC Price Escalation Name
    Electricity,             !- Resource
    2011,                    !- Escalation Start Year
    January,                 !- Escalation Start Month
    0.9838,                  !- Year 1 Escalation
    0.9730,                  !- Year 2 Escalation
    0.9632,                  !- Year 3 Escalation
    0.9611,                  !- Year 4 Escalation
    0.9571,                  !- Year 5 Escalation
    0.9553,                  !- Year 6 Escalation
    0.9539,                  !- Year 7 Escalation
    0.9521,                  !- Year 8 Escalation
    0.9546,                  !- Year 9 Escalation
    0.9550,                  !- <none>
    0.9553,                  !- <none>
    0.9564,                  !- <none>
    0.9575,                  !- <none>
    0.9596,                  !- <none>
    0.9618,                  !- <none>
    0.9614,                  !- <none>
    0.9618,                  !- <none>
    0.9618,                  !- <none>
    0.9593,                  !- <none>
    0.9589,                  !- <none>
    0.9607,                  !- <none>
    0.9625,                  !- <none>
    0.9650,                  !- <none>
    0.9708,                  !- <none>
    0.9751,                  !- <none>
    0.9762,                  !- <none>
    0.9766,                  !- <none>
    0.9766,                  !- <none>
    0.9769,                  !- <none>
    0.9773;                  !- <none>

  LifeCycleCost:UsePriceEscalation,
    U.S. Avg  Commercial-Distillate Oil,  !- LCC Price Escalation Name
    FuelOilNo1,              !- Resource
    2011,                    !- Escalation Start Year
    January,                 !- Escalation Start Month
    0.9714,                  !- Year 1 Escalation
    0.9730,                  !- Year 2 Escalation
    0.9942,                  !- Year 3 Escalation
    1.0164,                  !- Year 4 Escalation
    1.0541,                  !- Year 5 Escalation
    1.0928,                  !- Year 6 Escalation
    1.1267,                  !- Year 7 Escalation
    1.1580,                  !- Year 8 Escalation
    1.1792,                  !- Year 9 Escalation
    1.1967,                  !- <none>
    1.2200,                  !- <none>
    1.2333,                  !- <none>
    1.2566,                  !- <none>
    1.2709,                  !- <none>
    1.2826,                  !- <none>
    1.2985,                  !- <none>
    1.3102,                  !- <none>
    1.3250,                  !- <none>
    1.3261,                  !- <none>
    1.3282,                  !- <none>
    1.3324,                  !- <none>
    1.3356,                  !- <none>
    1.3431,                  !- <none>
    1.3510,                  !- <none>
    1.3568,                  !- <none>
    1.3606,                  !- <none>
    1.3637,                  !- <none>
    1.3674,                  !- <none>
    1.3706,                  !- <none>
    1.3743;                  !- <none>

  LifeCycleCost:UsePriceEscalation,
    U.S. Avg  Commercial-Residual Oil,  !- LCC Price Escalation Name
    FuelOilNo2,              !- Resource
    2011,                    !- Escalation Start Year
    January,                 !- Escalation Start Month
    0.8469,                  !- Year 1 Escalation
    0.8257,                  !- Year 2 Escalation
    0.8681,                  !- Year 3 Escalation
    0.8988,                  !- Year 4 Escalation
    0.9289,                  !- Year 5 Escalation
    0.9604,                  !- Year 6 Escalation
    0.9897,                  !- Year 7 Escalation
    1.0075,                  !- Year 8 Escalation
    1.0314,                  !- Year 9 Escalation
    1.0554,                  !- <none>
    1.0861,                  !- <none>
    1.1278,                  !- <none>
    1.1497,                  !- <none>
    1.1620,                  !- <none>
    1.1743,                  !- <none>
    1.1852,                  !- <none>
    1.1948,                  !- <none>
    1.2037,                  !- <none>
    1.2071,                  !- <none>
    1.2119,                  !- <none>
    1.2139,                  !- <none>
    1.2194,                  !- <none>
    1.2276,                  !- <none>
    1.2365,                  !- <none>
    1.2420,                  !- <none>
    1.2461,                  !- <none>
    1.2509,                  !- <none>
    1.2550,                  !- <none>
    1.2591,                  !- <none>
    1.2638;                  !- <none>

  LifeCycleCost:UsePriceEscalation,
    U.S. Avg  Commercial-Natural gas,  !- LCC Price Escalation Name
    NaturalGas,              !- Resource
    2011,                    !- Escalation Start Year
    January,                 !- Escalation Start Month
    0.9823,                  !- Year 1 Escalation
    0.9557,                  !- Year 2 Escalation
    0.9279,                  !- Year 3 Escalation
    0.9257,                  !- Year 4 Escalation
    0.9346,                  !- Year 5 Escalation
    0.9412,                  !- Year 6 Escalation
    0.9512,                  !- Year 7 Escalation
    0.9645,                  !- Year 8 Escalation
    0.9856,                  !- Year 9 Escalation
    1.0067,                  !- <none>
    1.0222,                  !- <none>
    1.0410,                  !- <none>
    1.0610,                  !- <none>
    1.0787,                  !- <none>
    1.0942,                  !- <none>
    1.1098,                  !- <none>
    1.1220,                  !- <none>
    1.1308,                  !- <none>
    1.1386,                  !- <none>
    1.1486,                  !- <none>
    1.1619,                  !- <none>
    1.1763,                  !- <none>
    1.1918,                  !- <none>
    1.2118,                  !- <none>
    1.2284,                  !- <none>
    1.2439,                  !- <none>
    1.2605,                  !- <none>
    1.2772,                  !- <none>
    1.2938,                  !- <none>
    1.3115;                  !- <none>

  LifeCycleCost:UsePriceEscalation,
    U.S. Avg  Commercial-Coal,  !- LCC Price Escalation Name
    Coal,                    !- Resource
    2011,                    !- Escalation Start Year
    January,                 !- Escalation Start Month
    0.9970,                  !- Year 1 Escalation
    1.0089,                  !- Year 2 Escalation
    1.0089,                  !- Year 3 Escalation
    0.9941,                  !- Year 4 Escalation
    0.9941,                  !- Year 5 Escalation
    1.0000,                  !- Year 6 Escalation
    1.0030,                  !- Year 7 Escalation
    1.0059,                  !- Year 8 Escalation
    1.0089,                  !- Year 9 Escalation
    1.0119,                  !- <none>
    1.0148,                  !- <none>
    1.0178,                  !- <none>
    1.0208,                  !- <none>
    1.0267,                  !- <none>
    1.0297,                  !- <none>
    1.0356,                  !- <none>
    1.0415,                  !- <none>
    1.0534,                  !- <none>
    1.0564,                  !- <none>
    1.0593,                  !- <none>
    1.0653,                  !- <none>
    1.0712,                  !- <none>
    1.0742,                  !- <none>
    1.0801,                  !- <none>
    1.0831,                  !- <none>
    1.0831,                  !- <none>
    1.0861,                  !- <none>
    1.0890,                  !- <none>
    1.0920,                  !- <none>
    1.0950;                  !- <none>

  Building,
    bld_8,                   !- Name
    ,                        !- North Axis {deg}
    City,                    !- Terrain
    ,                        !- Loads Convergence Tolerance Value {W}
    ,                        !- Temperature Convergence Tolerance Value {deltaC}
    ,                        !- Solar Distribution
    ,                        !- Maximum Number of Warmup Days
    ;                        !- Minimum Number of Warmup Days

  Shading:Building:Detailed,
    Shading Surface 32,      !- Name
    ,                        !- Transmittance Schedule Name
    ,                        !- Number of Vertices
    143.355659147329,-254.325955955949,0,  !- X,Y,Z ==> Vertex 1 {m}
    142.937128773589,-261.878041752865,0,  !- X,Y,Z ==> Vertex 2 {m}
    151.896878384729,-262.433159814355,0,  !- X,Y,Z ==> Vertex 3 {m}
    149.887920576207,-296.528609330089,0,  !- X,Y,Z ==> Vertex 4 {m}
    80.7217184132317,-292.531548302049,0,  !- X,Y,Z ==> Vertex 5 {m}
    82.8147101312318,-256.214917456116,0,  !- X,Y,Z ==> Vertex 6 {m}
    90.6858812469694,-256.659063351526,0,  !- X,Y,Z ==> Vertex 7 {m}
    91.0207577158697,-251.328180857603,0;  !- X,Y,Z ==> Vertex 8 {m}

  Shading:Building:Detailed,
    Shading Surface 33,      !- Name
    ,                        !- Transmittance Schedule Name
    ,                        !- Number of Vertices
    82.8147101312318,-256.214917456116,12,  !- X,Y,Z ==> Vertex 1 {m}
    82.8147101312318,-256.214917456116,0,  !- X,Y,Z ==> Vertex 2 {m}
    80.7217184132317,-292.531548302049,0,  !- X,Y,Z ==> Vertex 3 {m}
    80.7217184132317,-292.531548302049,12;  !- X,Y,Z ==> Vertex 4 {m}

  Shading:Building:Detailed,
    Shading Surface 34,      !- Name
    ,                        !- Transmittance Schedule Name
    ,                        !- Number of Vertices
    90.6858812469694,-256.659063351526,12,  !- X,Y,Z ==> Vertex 1 {m}
    90.6858812469694,-256.659063351526,0,  !- X,Y,Z ==> Vertex 2 {m}
    82.8147101312318,-256.214917456116,0,  !- X,Y,Z ==> Vertex 3 {m}
    82.8147101312318,-256.214917456116,12;  !- X,Y,Z ==> Vertex 4 {m}

  Shading:Building:Detailed,
    Shading Surface 35,      !- Name
    ,                        !- Transmittance Schedule Name
    ,                        !- Number of Vertices
    80.7217184132317,-292.531548302049,12,  !- X,Y,Z ==> Vertex 1 {m}
    80.7217184132317,-292.531548302049,0,  !- X,Y,Z ==> Vertex 2 {m}
    149.887920576207,-296.528609330089,0,  !- X,Y,Z ==> Vertex 3 {m}
    149.887920576207,-296.528609330089,12;  !- X,Y,Z ==> Vertex 4 {m}

  Shading:Building:Detailed,
    Shading Surface 36,      !- Name
    ,                        !- Transmittance Schedule Name
    ,                        !- Number of Vertices
    142.937128773589,-261.878041752865,12,  !- X,Y,Z ==> Vertex 1 {m}
    142.937128773589,-261.878041752865,0,  !- X,Y,Z ==> Vertex 2 {m}
    143.355659147329,-254.325955955949,0,  !- X,Y,Z ==> Vertex 3 {m}
    143.355659147329,-254.325955955949,12;  !- X,Y,Z ==> Vertex 4 {m}

  Shading:Building:Detailed,
    Shading Surface 37,      !- Name
    ,                        !- Transmittance Schedule Name
    ,                        !- Number of Vertices
    149.887920576207,-296.528609330089,12,  !- X,Y,Z ==> Vertex 1 {m}
    149.887920576207,-296.528609330089,0,  !- X,Y,Z ==> Vertex 2 {m}
    151.896878384729,-262.433159814355,0,  !- X,Y,Z ==> Vertex 3 {m}
    151.896878384729,-262.433159814355,12;  !- X,Y,Z ==> Vertex 4 {m}

  Shading:Building:Detailed,
    Shading Surface 38,      !- Name
    ,                        !- Transmittance Schedule Name
    ,                        !- Number of Vertices
    143.355659147329,-254.325955955949,12,  !- X,Y,Z ==> Vertex 1 {m}
    143.355659147329,-254.325955955949,0,  !- X,Y,Z ==> Vertex 2 {m}
    91.0207577158697,-251.328180857603,0,  !- X,Y,Z ==> Vertex 3 {m}
    91.0207577158697,-251.328180857603,12;  !- X,Y,Z ==> Vertex 4 {m}

  Shading:Building:Detailed,
    Shading Surface 39,      !- Name
    ,                        !- Transmittance Schedule Name
    ,                        !- Number of Vertices
    91.0207577158697,-251.328180857603,12,  !- X,Y,Z ==> Vertex 1 {m}
    90.6858812469694,-256.659063351526,12,  !- X,Y,Z ==> Vertex 2 {m}
    82.8147101312318,-256.214917456116,12,  !- X,Y,Z ==> Vertex 3 {m}
    80.7217184132317,-292.531548302049,12,  !- X,Y,Z ==> Vertex 4 {m}
    149.887920576207,-296.528609330089,12,  !- X,Y,Z ==> Vertex 5 {m}
    151.896878384729,-262.433159814355,12,  !- X,Y,Z ==> Vertex 6 {m}
    142.937128773589,-261.878041752865,12,  !- X,Y,Z ==> Vertex 7 {m}
    143.355659147329,-254.325955955949,12;  !- X,Y,Z ==> Vertex 8 {m}

  Shading:Building:Detailed,
    Shading Surface 40,      !- Name
    ,                        !- Transmittance Schedule Name
    ,                        !- Number of Vertices
    91.0207577158697,-251.328180857603,12,  !- X,Y,Z ==> Vertex 1 {m}
    91.0207577158697,-251.328180857603,0,  !- X,Y,Z ==> Vertex 2 {m}
    90.6858812469694,-256.659063351526,0,  !- X,Y,Z ==> Vertex 3 {m}
    90.6858812469694,-256.659063351526,12;  !- X,Y,Z ==> Vertex 4 {m}

  Shading:Building:Detailed,
    Shading Surface 41,      !- Name
    ,                        !- Transmittance Schedule Name
    ,                        !- Number of Vertices
    151.896878384729,-262.433159814355,12,  !- X,Y,Z ==> Vertex 1 {m}
    151.896878384729,-262.433159814355,0,  !- X,Y,Z ==> Vertex 2 {m}
    142.937128773589,-261.878041752865,0,  !- X,Y,Z ==> Vertex 3 {m}
    142.937128773589,-261.878041752865,12;  !- X,Y,Z ==> Vertex 4 {m}

  Shading:Building:Detailed,
    Shading Surface 42,      !- Name
    ,                        !- Transmittance Schedule Name
    ,                        !- Number of Vertices
    66.1500285427302,-118.167537603533,12,  !- X,Y,Z ==> Vertex 1 {m}
    66.1500285427302,-118.167537603533,0,  !- X,Y,Z ==> Vertex 2 {m}
    31.9864582558637,-115.613388546935,0,  !- X,Y,Z ==> Vertex 3 {m}
    31.9864582558637,-115.613388546935,12;  !- X,Y,Z ==> Vertex 4 {m}

  Shading:Building:Detailed,
    Shading Surface 43,      !- Name
    ,                        !- Transmittance Schedule Name
    ,                        !- Number of Vertices
    31.9864582558637,-115.613388546935,12,  !- X,Y,Z ==> Vertex 1 {m}
    30.479330049802,-136.381612610399,12,  !- X,Y,Z ==> Vertex 2 {m}
    28.0510347775034,-137.159042285279,12,  !- X,Y,Z ==> Vertex 3 {m}
    29.0558603968439,-140.268717912843,12,  !- X,Y,Z ==> Vertex 4 {m}
    24.3669361188187,-201.684903659732,12,  !- X,Y,Z ==> Vertex 5 {m}
    45.9706219769055,-203.35069871275,12,  !- X,Y,Z ==> Vertex 6 {m}
    46.1380740346174,-200.463138333095,12,  !- X,Y,Z ==> Vertex 7 {m}
    63.7224686793538,-201.68466512825,12,  !- X,Y,Z ==> Vertex 8 {m}
    64.3922713587599,-192.799861252846,12,  !- X,Y,Z ==> Vertex 9 {m}
    55.4324058844297,-164.923880681586,12,  !- X,Y,Z ==> Vertex 10 {m}
    48.8173567389894,-164.368628228534,12,  !- X,Y,Z ==> Vertex 11 {m}
    49.5708989969416,-154.040044868712,12,  !- X,Y,Z ==> Vertex 12 {m}
    52.2504086481679,-154.262146060454,12,  !- X,Y,Z ==> Vertex 13 {m}
    52.8364953365599,-146.599003009335,12,  !- X,Y,Z ==> Vertex 14 {m}
    59.4515068079077,-144.48881221097,12,  !- X,Y,Z ==> Vertex 15 {m}
    59.7864128958698,-140.601710017265,12,  !- X,Y,Z ==> Vertex 16 {m}
    64.3917960529796,-139.157890867985,12,  !- X,Y,Z ==> Vertex 17 {m}
    64.6429687937428,-135.715029099625,12,  !- X,Y,Z ==> Vertex 18 {m}
    67.1549940750002,-134.937586420873,12,  !- X,Y,Z ==> Vertex 19 {m}
    67.9922342304012,-123.831579986298,12,  !- X,Y,Z ==> Vertex 20 {m}
    66.1500285427302,-118.167537603533,12;  !- X,Y,Z ==> Vertex 21 {m}

  Shading:Building:Detailed,
    Shading Surface 44,      !- Name
    ,                        !- Transmittance Schedule Name
    ,                        !- Number of Vertices
    45.9706219769055,-203.35069871275,12,  !- X,Y,Z ==> Vertex 1 {m}
    45.9706219769055,-203.35069871275,0,  !- X,Y,Z ==> Vertex 2 {m}
    46.1380740346174,-200.463138333095,0,  !- X,Y,Z ==> Vertex 3 {m}
    46.1380740346174,-200.463138333095,12;  !- X,Y,Z ==> Vertex 4 {m}

  Shading:Building:Detailed,
    Shading Surface 45,      !- Name
    ,                        !- Transmittance Schedule Name
    ,                        !- Number of Vertices
    64.3922713587599,-192.799861252846,12,  !- X,Y,Z ==> Vertex 1 {m}
    64.3922713587599,-192.799861252846,0,  !- X,Y,Z ==> Vertex 2 {m}
    55.4324058844297,-164.923880681586,0,  !- X,Y,Z ==> Vertex 3 {m}
    55.4324058844297,-164.923880681586,12;  !- X,Y,Z ==> Vertex 4 {m}

  Shading:Building:Detailed,
    Shading Surface 46,      !- Name
    ,                        !- Transmittance Schedule Name
    ,                        !- Number of Vertices
    28.0510347775034,-137.159042285279,12,  !- X,Y,Z ==> Vertex 1 {m}
    28.0510347775034,-137.159042285279,0,  !- X,Y,Z ==> Vertex 2 {m}
    29.0558603968439,-140.268717912843,0,  !- X,Y,Z ==> Vertex 3 {m}
    29.0558603968439,-140.268717912843,12;  !- X,Y,Z ==> Vertex 4 {m}

  Shading:Building:Detailed,
    Shading Surface 47,      !- Name
    ,                        !- Transmittance Schedule Name
    ,                        !- Number of Vertices
    30.479330049802,-136.381612610399,12,  !- X,Y,Z ==> Vertex 1 {m}
    30.479330049802,-136.381612610399,0,  !- X,Y,Z ==> Vertex 2 {m}
    28.0510347775034,-137.159042285279,0,  !- X,Y,Z ==> Vertex 3 {m}
    28.0510347775034,-137.159042285279,12;  !- X,Y,Z ==> Vertex 4 {m}

  Shading:Building:Detailed,
    Shading Surface 48,      !- Name
    ,                        !- Transmittance Schedule Name
    ,                        !- Number of Vertices
    29.0558603968439,-140.268717912843,12,  !- X,Y,Z ==> Vertex 1 {m}
    29.0558603968439,-140.268717912843,0,  !- X,Y,Z ==> Vertex 2 {m}
    24.3669361188187,-201.684903659732,0,  !- X,Y,Z ==> Vertex 3 {m}
    24.3669361188187,-201.684903659732,12;  !- X,Y,Z ==> Vertex 4 {m}

  Shading:Building:Detailed,
    Shading Surface 49,      !- Name
    ,                        !- Transmittance Schedule Name
    ,                        !- Number of Vertices
    31.9864582558637,-115.613388546935,12,  !- X,Y,Z ==> Vertex 1 {m}
    31.9864582558637,-115.613388546935,0,  !- X,Y,Z ==> Vertex 2 {m}
    30.479330049802,-136.381612610399,0,  !- X,Y,Z ==> Vertex 3 {m}
    30.479330049802,-136.381612610399,12;  !- X,Y,Z ==> Vertex 4 {m}

  Shading:Building:Detailed,
    Shading Surface 50,      !- Name
    ,                        !- Transmittance Schedule Name
    ,                        !- Number of Vertices
    66.1500285427302,-118.167537603533,0,  !- X,Y,Z ==> Vertex 1 {m}
    67.9922342304012,-123.831579986298,0,  !- X,Y,Z ==> Vertex 2 {m}
    67.1549940750002,-134.937586420873,0,  !- X,Y,Z ==> Vertex 3 {m}
    64.6429687937428,-135.715029099625,0,  !- X,Y,Z ==> Vertex 4 {m}
    64.3917960529796,-139.157890867985,0,  !- X,Y,Z ==> Vertex 5 {m}
    59.7864128958698,-140.601710017265,0,  !- X,Y,Z ==> Vertex 6 {m}
    59.4515068079077,-144.48881221097,0,  !- X,Y,Z ==> Vertex 7 {m}
    52.8364953365599,-146.599003009335,0,  !- X,Y,Z ==> Vertex 8 {m}
    52.2504086481679,-154.262146060454,0,  !- X,Y,Z ==> Vertex 9 {m}
    49.5708989969416,-154.040044868712,0,  !- X,Y,Z ==> Vertex 10 {m}
    48.8173567389894,-164.368628228534,0,  !- X,Y,Z ==> Vertex 11 {m}
    55.4324058844297,-164.923880681586,0,  !- X,Y,Z ==> Vertex 12 {m}
    64.3922713587599,-192.799861252846,0,  !- X,Y,Z ==> Vertex 13 {m}
    63.7224686793538,-201.68466512825,0,  !- X,Y,Z ==> Vertex 14 {m}
    46.1380740346174,-200.463138333095,0,  !- X,Y,Z ==> Vertex 15 {m}
    45.9706219769055,-203.35069871275,0,  !- X,Y,Z ==> Vertex 16 {m}
    24.3669361188187,-201.684903659732,0,  !- X,Y,Z ==> Vertex 17 {m}
    29.0558603968439,-140.268717912843,0,  !- X,Y,Z ==> Vertex 18 {m}
    28.0510347775034,-137.159042285279,0,  !- X,Y,Z ==> Vertex 19 {m}
    30.479330049802,-136.381612610399,0,  !- X,Y,Z ==> Vertex 20 {m}
    31.9864582558637,-115.613388546935,0;  !- X,Y,Z ==> Vertex 21 {m}

  Shading:Building:Detailed,
    Shading Surface 51,      !- Name
    ,                        !- Transmittance Schedule Name
    ,                        !- Number of Vertices
    46.1380740346174,-200.463138333095,12,  !- X,Y,Z ==> Vertex 1 {m}
    46.1380740346174,-200.463138333095,0,  !- X,Y,Z ==> Vertex 2 {m}
    63.7224686793538,-201.68466512825,0,  !- X,Y,Z ==> Vertex 3 {m}
    63.7224686793538,-201.68466512825,12;  !- X,Y,Z ==> Vertex 4 {m}

  Shading:Building:Detailed,
    Shading Surface 52,      !- Name
    ,                        !- Transmittance Schedule Name
    ,                        !- Number of Vertices
    67.1549940750002,-134.937586420873,12,  !- X,Y,Z ==> Vertex 1 {m}
    67.1549940750002,-134.937586420873,0,  !- X,Y,Z ==> Vertex 2 {m}
    67.9922342304012,-123.831579986298,0,  !- X,Y,Z ==> Vertex 3 {m}
    67.9922342304012,-123.831579986298,12;  !- X,Y,Z ==> Vertex 4 {m}

  Shading:Building:Detailed,
    Shading Surface 53,      !- Name
    ,                        !- Transmittance Schedule Name
    ,                        !- Number of Vertices
    64.6429687937428,-135.715029099625,12,  !- X,Y,Z ==> Vertex 1 {m}
    64.6429687937428,-135.715029099625,0,  !- X,Y,Z ==> Vertex 2 {m}
    67.1549940750002,-134.937586420873,0,  !- X,Y,Z ==> Vertex 3 {m}
    67.1549940750002,-134.937586420873,12;  !- X,Y,Z ==> Vertex 4 {m}

  Shading:Building:Detailed,
    Shading Surface 54,      !- Name
    ,                        !- Transmittance Schedule Name
    ,                        !- Number of Vertices
    52.8364953365599,-146.599003009335,12,  !- X,Y,Z ==> Vertex 1 {m}
    52.8364953365599,-146.599003009335,0,  !- X,Y,Z ==> Vertex 2 {m}
    59.4515068079077,-144.48881221097,0,  !- X,Y,Z ==> Vertex 3 {m}
    59.4515068079077,-144.48881221097,12;  !- X,Y,Z ==> Vertex 4 {m}

  Shading:Building:Detailed,
    Shading Surface 55,      !- Name
    ,                        !- Transmittance Schedule Name
    ,                        !- Number of Vertices
    59.4515068079077,-144.48881221097,12,  !- X,Y,Z ==> Vertex 1 {m}
    59.4515068079077,-144.48881221097,0,  !- X,Y,Z ==> Vertex 2 {m}
    59.7864128958698,-140.601710017265,0,  !- X,Y,Z ==> Vertex 3 {m}
    59.7864128958698,-140.601710017265,12;  !- X,Y,Z ==> Vertex 4 {m}

  Shading:Building:Detailed,
    Shading Surface 56,      !- Name
    ,                        !- Transmittance Schedule Name
    ,                        !- Number of Vertices
    64.3917960529796,-139.157890867985,12,  !- X,Y,Z ==> Vertex 1 {m}
    64.3917960529796,-139.157890867985,0,  !- X,Y,Z ==> Vertex 2 {m}
    64.6429687937428,-135.715029099625,0,  !- X,Y,Z ==> Vertex 3 {m}
    64.6429687937428,-135.715029099625,12;  !- X,Y,Z ==> Vertex 4 {m}

  Shading:Building:Detailed,
    Shading Surface 57,      !- Name
    ,                        !- Transmittance Schedule Name
    ,                        !- Number of Vertices
    55.4324058844297,-164.923880681586,12,  !- X,Y,Z ==> Vertex 1 {m}
    55.4324058844297,-164.923880681586,0,  !- X,Y,Z ==> Vertex 2 {m}
    48.8173567389894,-164.368628228534,0,  !- X,Y,Z ==> Vertex 3 {m}
    48.8173567389894,-164.368628228534,12;  !- X,Y,Z ==> Vertex 4 {m}

  Shading:Building:Detailed,
    Shading Surface 58,      !- Name
    ,                        !- Transmittance Schedule Name
    ,                        !- Number of Vertices
    59.7864128958698,-140.601710017265,12,  !- X,Y,Z ==> Vertex 1 {m}
    59.7864128958698,-140.601710017265,0,  !- X,Y,Z ==> Vertex 2 {m}
    64.3917960529796,-139.157890867985,0,  !- X,Y,Z ==> Vertex 3 {m}
    64.3917960529796,-139.157890867985,12;  !- X,Y,Z ==> Vertex 4 {m}

  Shading:Building:Detailed,
    Shading Surface 59,      !- Name
    ,                        !- Transmittance Schedule Name
    ,                        !- Number of Vertices
    67.9922342304012,-123.831579986298,12,  !- X,Y,Z ==> Vertex 1 {m}
    67.9922342304012,-123.831579986298,0,  !- X,Y,Z ==> Vertex 2 {m}
    66.1500285427302,-118.167537603533,0,  !- X,Y,Z ==> Vertex 3 {m}
    66.1500285427302,-118.167537603533,12;  !- X,Y,Z ==> Vertex 4 {m}

  Shading:Building:Detailed,
    Shading Surface 60,      !- Name
    ,                        !- Transmittance Schedule Name
    ,                        !- Number of Vertices
    49.5708989969416,-154.040044868712,12,  !- X,Y,Z ==> Vertex 1 {m}
    49.5708989969416,-154.040044868712,0,  !- X,Y,Z ==> Vertex 2 {m}
    52.2504086481679,-154.262146060454,0,  !- X,Y,Z ==> Vertex 3 {m}
    52.2504086481679,-154.262146060454,12;  !- X,Y,Z ==> Vertex 4 {m}

  Shading:Building:Detailed,
    Shading Surface 61,      !- Name
    ,                        !- Transmittance Schedule Name
    ,                        !- Number of Vertices
    48.8173567389894,-164.368628228534,12,  !- X,Y,Z ==> Vertex 1 {m}
    48.8173567389894,-164.368628228534,0,  !- X,Y,Z ==> Vertex 2 {m}
    49.5708989969416,-154.040044868712,0,  !- X,Y,Z ==> Vertex 3 {m}
    49.5708989969416,-154.040044868712,12;  !- X,Y,Z ==> Vertex 4 {m}

  Shading:Building:Detailed,
    Shading Surface 62,      !- Name
    ,                        !- Transmittance Schedule Name
    ,                        !- Number of Vertices
    52.2504086481679,-154.262146060454,12,  !- X,Y,Z ==> Vertex 1 {m}
    52.2504086481679,-154.262146060454,0,  !- X,Y,Z ==> Vertex 2 {m}
    52.8364953365599,-146.599003009335,0,  !- X,Y,Z ==> Vertex 3 {m}
    52.8364953365599,-146.599003009335,12;  !- X,Y,Z ==> Vertex 4 {m}

  Shading:Building:Detailed,
    Shading Surface 63,      !- Name
    ,                        !- Transmittance Schedule Name
    ,                        !- Number of Vertices
    63.7224686793538,-201.68466512825,12,  !- X,Y,Z ==> Vertex 1 {m}
    63.7224686793538,-201.68466512825,0,  !- X,Y,Z ==> Vertex 2 {m}
    64.3922713587599,-192.799861252846,0,  !- X,Y,Z ==> Vertex 3 {m}
    64.3922713587599,-192.799861252846,12;  !- X,Y,Z ==> Vertex 4 {m}

  Shading:Building:Detailed,
    Shading Surface 64,      !- Name
    ,                        !- Transmittance Schedule Name
    ,                        !- Number of Vertices
    24.3669361188187,-201.684903659732,12,  !- X,Y,Z ==> Vertex 1 {m}
    24.3669361188187,-201.684903659732,0,  !- X,Y,Z ==> Vertex 2 {m}
    45.9706219769055,-203.35069871275,0,  !- X,Y,Z ==> Vertex 3 {m}
    45.9706219769055,-203.35069871275,12;  !- X,Y,Z ==> Vertex 4 {m}

  Shading:Building:Detailed,
    Shading Surface 65,      !- Name
    ,                        !- Transmittance Schedule Name
    ,                        !- Number of Vertices
    38.3501102940298,-87.9594199128617,12,  !- X,Y,Z ==> Vertex 1 {m}
    38.3501102940298,-87.9594199128617,0,  !- X,Y,Z ==> Vertex 2 {m}
    23.1942760720508,-86.5157041723316,0,  !- X,Y,Z ==> Vertex 3 {m}
    23.1942760720508,-86.5157041723316,12;  !- X,Y,Z ==> Vertex 4 {m}

  Shading:Building:Detailed,
    Shading Surface 66,      !- Name
    ,                        !- Transmittance Schedule Name
    ,                        !- Number of Vertices
    39.605856784901,-39.9814940793559,12,  !- X,Y,Z ==> Vertex 1 {m}
    39.605856784901,-39.9814940793559,0,  !- X,Y,Z ==> Vertex 2 {m}
    26.7946554770188,-38.7598925854555,0,  !- X,Y,Z ==> Vertex 3 {m}
    26.7946554770188,-38.7598925854555,12;  !- X,Y,Z ==> Vertex 4 {m}

  Shading:Building:Detailed,
    Shading Surface 67,      !- Name
    ,                        !- Transmittance Schedule Name
    ,                        !- Number of Vertices
    39.605856784901,-39.9814940793559,0,  !- X,Y,Z ==> Vertex 1 {m}
    37.7638243344566,-59.3059439557678,0,  !- X,Y,Z ==> Vertex 2 {m}
    25.8736583947743,-58.1953960314518,0,  !- X,Y,Z ==> Vertex 3 {m}
    23.1942760720508,-86.5157041723316,0,  !- X,Y,Z ==> Vertex 4 {m}
    38.3501102940298,-87.9594199128617,0,  !- X,Y,Z ==> Vertex 5 {m}
    37.0104419806424,-102.397225879724,0,  !- X,Y,Z ==> Vertex 6 {m}
    7.61979396703158,-99.620816347197,0,  !- X,Y,Z ==> Vertex 7 {m}
    13.0623995360629,-41.5364302969338,0,  !- X,Y,Z ==> Vertex 8 {m}
    26.3760034971171,-42.758054188412,0,  !- X,Y,Z ==> Vertex 9 {m}
    26.7946554770188,-38.7598925854555,0;  !- X,Y,Z ==> Vertex 10 {m}

  Shading:Building:Detailed,
    Shading Surface 68,      !- Name
    ,                        !- Transmittance Schedule Name
    ,                        !- Number of Vertices
    25.8736583947743,-58.1953960314518,12,  !- X,Y,Z ==> Vertex 1 {m}
    25.8736583947743,-58.1953960314518,0,  !- X,Y,Z ==> Vertex 2 {m}
    37.7638243344566,-59.3059439557678,0,  !- X,Y,Z ==> Vertex 3 {m}
    37.7638243344566,-59.3059439557678,12;  !- X,Y,Z ==> Vertex 4 {m}

  Shading:Building:Detailed,
    Shading Surface 69,      !- Name
    ,                        !- Transmittance Schedule Name
    ,                        !- Number of Vertices
    23.1942760720508,-86.5157041723316,12,  !- X,Y,Z ==> Vertex 1 {m}
    23.1942760720508,-86.5157041723316,0,  !- X,Y,Z ==> Vertex 2 {m}
    25.8736583947743,-58.1953960314518,0,  !- X,Y,Z ==> Vertex 3 {m}
    25.8736583947743,-58.1953960314518,12;  !- X,Y,Z ==> Vertex 4 {m}

  Shading:Building:Detailed,
    Shading Surface 70,      !- Name
    ,                        !- Transmittance Schedule Name
    ,                        !- Number of Vertices
    37.7638243344566,-59.3059439557678,12,  !- X,Y,Z ==> Vertex 1 {m}
    37.7638243344566,-59.3059439557678,0,  !- X,Y,Z ==> Vertex 2 {m}
    39.605856784901,-39.9814940793559,0,  !- X,Y,Z ==> Vertex 3 {m}