  ConvergenceLimits,
    0,                       !- Minimum System Timestep {minutes}
    25;                      !- Maximum HVAC Iterations

  Version,23.1;

  Timestep,1;

  LifeCycleCost:Parameters,
    Life Cycle Cost Parameters,  !- Name
    EndOfYear,               !- Discounting Convention
    ConstantDollar,          !- Inflation Approach
    0.03,                    !- Real Discount Rate
    ,                        !- Nominal Discount Rate
    ,                        !- Inflation
    ,                        !- Base Date Month
    2011,                    !- Base Date Year
    ,                        !- Service Date Month
    2011,                    !- Service Date Year
    25,                      !- Length of Study Period in Years
    ,                        !- Tax rate
    None;                    !- Depreciation Method

  LifeCycleCost:UsePriceEscalation,
    U.S. Avg  Commercial-Electricity,  !- LCC Price Escalation Name
    Electricity,             !- Resource
    2011,                    !- Escalation Start Year
    January,                 !- Escalation Start Month
    0.9838,                  !- Year 1 Escalation
    0.9730,                  !- Year 2 Escalation
    0.9632,                  !- Year 3 Escalation
    0.9611,                  !- Year 4 Escalation
    0.9571,                  !- Year 5 Escalation
    0.9553,                  !- Year 6 Escalation
    0.9539,                  !- Year 7 Escalation
    0.9521,                  !- Year 8 Escalation
    0.9546,                  !- Year 9 Escalation
    0.9550,                  !- <none>
    0.9553,                  !- <none>
    0.9564,                  !- <none>
    0.9575,                  !- <none>
    0.9596,                  !- <none>
    0.9618,                  !- <none>
    0.9614,                  !- <none>
    0.9618,                  !- <none>
    0.9618,                  !- <none>
    0.9593,                  !- <none>
    0.9589,                  !- <none>
    0.9607,                  !- <none>
    0.9625,                  !- <none>
    0.9650,                  !- <none>
    0.9708,                  !- <none>
    0.9751,                  !- <none>
    0.9762,                  !- <none>
    0.9766,                  !- <none>
    0.9766,                  !- <none>
    0.9769,                  !- <none>
    0.9773;                  !- <none>

  LifeCycleCost:UsePriceEscalation,
    U.S. Avg  Commercial-Distillate Oil,  !- LCC Price Escalation Name
    FuelOilNo1,              !- Resource
    2011,                    !- Escalation Start Year
    January,                 !- Escalation Start Month
    0.9714,                  !- Year 1 Escalation
    0.9730,                  !- Year 2 Escalation
    0.9942,                  !- Year 3 Escalation
    1.0164,                  !- Year 4 Escalation
    1.0541,                  !- Year 5 Escalation
    1.0928,                  !- Year 6 Escalation
    1.1267,                  !- Year 7 Escalation
    1.1580,                  !- Year 8 Escalation
    1.1792,                  !- Year 9 Escalation
    1.1967,                  !- <none>
    1.2200,                  !- <none>
    1.2333,                  !- <none>
    1.2566,                  !- <none>
    1.2709,                  !- <none>
    1.2826,                  !- <none>
    1.2985,                  !- <none>
    1.3102,                  !- <none>
    1.3250,                  !- <none>
    1.3261,                  !- <none>
    1.3282,                  !- <none>
    1.3324,                  !- <none>
    1.3356,                  !- <none>
    1.3431,                  !- <none>
    1.3510,                  !- <none>
    1.3568,                  !- <none>
    1.3606,                  !- <none>
    1.3637,                  !- <none>
    1.3674,                  !- <none>
    1.3706,                  !- <none>
    1.3743;                  !- <none>

  LifeCycleCost:UsePriceEscalation,
    U.S. Avg  Commercial-Residual Oil,  !- LCC Price Escalation Name
    FuelOilNo2,              !- Resource
    2011,                    !- Escalation Start Year
    January,                 !- Escalation Start Month
    0.8469,                  !- Year 1 Escalation
    0.8257,                  !- Year 2 Escalation
    0.8681,                  !- Year 3 Escalation
    0.8988,                  !- Year 4 Escalation
    0.9289,                  !- Year 5 Escalation
    0.9604,                  !- Year 6 Escalation
    0.9897,                  !- Year 7 Escalation
    1.0075,                  !- Year 8 Escalation
    1.0314,                  !- Year 9 Escalation
    1.0554,                  !- <none>
    1.0861,                  !- <none>
    1.1278,                  !- <none>
    1.1497,                  !- <none>
    1.1620,                  !- <none>
    1.1743,                  !- <none>
    1.1852,                  !- <none>
    1.1948,                  !- <none>
    1.2037,                  !- <none>
    1.2071,                  !- <none>
    1.2119,                  !- <none>
    1.2139,                  !- <none>
    1.2194,                  !- <none>
    1.2276,                  !- <none>
    1.2365,                  !- <none>
    1.2420,                  !- <none>
    1.2461,                  !- <none>
    1.2509,                  !- <none>
    1.2550,                  !- <none>
    1.2591,                  !- <none>
    1.2638;                  !- <none>

  LifeCycleCost:UsePriceEscalation,
    U.S. Avg  Commercial-Natural gas,  !- LCC Price Escalation Name
    NaturalGas,              !- Resource
    2011,                    !- Escalation Start Year
    January,                 !- Escalation Start Month
    0.9823,                  !- Year 1 Escalation
    0.9557,                  !- Year 2 Escalation
    0.9279,                  !- Year 3 Escalation
    0.9257,                  !- Year 4 Escalation
    0.9346,                  !- Year 5 Escalation
    0.9412,                  !- Year 6 Escalation
    0.9512,                  !- Year 7 Escalation
    0.9645,                  !- Year 8 Escalation
    0.9856,                  !- Year 9 Escalation
    1.0067,                  !- <none>
    1.0222,                  !- <none>
    1.0410,                  !- <none>
    1.0610,                  !- <none>
    1.0787,                  !- <none>
    1.0942,                  !- <none>
    1.1098,                  !- <none>
    1.1220,                  !- <none>
    1.1308,                  !- <none>
    1.1386,                  !- <none>
    1.1486,                  !- <none>
    1.1619,                  !- <none>
    1.1763,                  !- <none>
    1.1918,                  !- <none>
    1.2118,                  !- <none>
    1.2284,                  !- <none>
    1.2439,                  !- <none>
    1.2605,                  !- <none>
    1.2772,                  !- <none>
    1.2938,                  !- <none>
    1.3115;                  !- <none>

  LifeCycleCost:UsePriceEscalation,
    U.S. Avg  Commercial-Coal,  !- LCC Price Escalation Name
    Coal,                    !- Resource
    2011,                    !- Escalation Start Year
    January,                 !- Escalation Start Month
    0.9970,                  !- Year 1 Escalation
    1.0089,                  !- Year 2 Escalation
    1.0089,                  !- Year 3 Escalation
    0.9941,                  !- Year 4 Escalation
    0.9941,                  !- Year 5 Escalation
    1.0000,                  !- Year 6 Escalation
    1.0030,                  !- Year 7 Escalation
    1.0059,                  !- Year 8 Escalation
    1.0089,                  !- Year 9 Escalation
    1.0119,                  !- <none>
    1.0148,                  !- <none>
    1.0178,                  !- <none>
    1.0208,                  !- <none>
    1.0267,                  !- <none>
    1.0297,                  !- <none>
    1.0356,                  !- <none>
    1.0415,                  !- <none>
    1.0534,                  !- <none>
    1.0564,                  !- <none>
    1.0593,                  !- <none>
    1.0653,                  !- <none>
    1.0712,                  !- <none>
    1.0742,                  !- <none>
    1.0801,                  !- <none>
    1.0831,                  !- <none>
    1.0831,                  !- <none>
    1.0861,                  !- <none>
    1.0890,                  !- <none>
    1.0920,                  !- <none>
    1.0950;                  !- <none>

  Building,
    bld_11,                  !- Name
    ,                        !- North Axis {deg}
    City,                    !- Terrain
    ,                        !- Loads Convergence Tolerance Value {W}
    ,                        !- Temperature Convergence Tolerance Value {deltaC}
    ,                        !- Solar Distribution
    ,                        !- Maximum Number of Warmup Days
    ;                        !- Minimum Number of Warmup Days

  Shading:Building:Detailed,
    Shading Surface 46,      !- Name
    ,                        !- Transmittance Schedule Name
    ,                        !- Number of Vertices
    -66.9048899957241,96.7335299034283,0,  !- X,Y,Z ==> Vertex 1 {m}
    -67.3236388680141,89.1814562135975,0,  !- X,Y,Z ==> Vertex 2 {m}
    -58.3639053194611,88.6260789193338,0,  !- X,Y,Z ==> Vertex 3 {m}
    -60.3738495810526,54.5306875124125,0,  !- X,Y,Z ==> Vertex 4 {m}
    -129.53993607559,58.5297497106292,0,  !- X,Y,Z ==> Vertex 5 {m}
    -127.44589364085,94.8463200171061,0,  !- X,Y,Z ==> Vertex 6 {m}
    -119.574735379285,94.4019463889665,0,  !- X,Y,Z ==> Vertex 7 {m}
    -119.239704676146,99.7328191954621,0;  !- X,Y,Z ==> Vertex 8 {m}

  Shading:Building:Detailed,
    Shading Surface 47,      !- Name
    ,                        !- Transmittance Schedule Name
    ,                        !- Number of Vertices
    -67.3236388680141,89.1814562135975,12,  !- X,Y,Z ==> Vertex 1 {m}
    -67.3236388680141,89.1814562135975,0,  !- X,Y,Z ==> Vertex 2 {m}
    -66.9048899957241,96.7335299034283,0,  !- X,Y,Z ==> Vertex 3 {m}
    -66.9048899957241,96.7335299034283,12;  !- X,Y,Z ==> Vertex 4 {m}

  Shading:Building:Detailed,
    Shading Surface 48,      !- Name
    ,                        !- Transmittance Schedule Name
    ,                        !- Number of Vertices
    -119.574735379285,94.4019463889665,12,  !- X,Y,Z ==> Vertex 1 {m}
    -119.574735379285,94.4019463889665,0,  !- X,Y,Z ==> Vertex 2 {m}
    -127.44589364085,94.8463200171061,0,  !- X,Y,Z ==> Vertex 3 {m}
    -127.44589364085,94.8463200171061,12;  !- X,Y,Z ==> Vertex 4 {m}

  Shading:Building:Detailed,
    Shading Surface 49,      !- Name
    ,                        !- Transmittance Schedule Name
    ,                        !- Number of Vertices
    -58.3639053194611,88.6260789193338,12,  !- X,Y,Z ==> Vertex 1 {m}
    -58.3639053194611,88.6260789193338,0,  !- X,Y,Z ==> Vertex 2 {m}
    -67.3236388680141,89.1814562135975,0,  !- X,Y,Z ==> Vertex 3 {m}
    -67.3236388680141,89.1814562135975,12;  !- X,Y,Z ==> Vertex 4 {m}

  Shading:Building:Detailed,
    Shading Surface 50,      !- Name
    ,                        !- Transmittance Schedule Name
    ,                        !- Number of Vertices
    -129.53993607559,58.5297497106292,12,  !- X,Y,Z ==> Vertex 1 {m}
    -129.53993607559,58.5297497106292,0,  !- X,Y,Z ==> Vertex 2 {m}
    -60.3738495810526,54.5306875124125,0,  !- X,Y,Z ==> Vertex 3 {m}
    -60.3738495810526,54.5306875124125,12;  !- X,Y,Z ==> Vertex 4 {m}

  Shading:Building:Detailed,
    Shading Surface 51,      !- Name
    ,                        !- Transmittance Schedule Name
    ,                        !- Number of Vertices
    -127.44589364085,94.8463200171061,12,  !- X,Y,Z ==> Vertex 1 {m}
    -127.44589364085,94.8463200171061,0,  !- X,Y,Z ==> Vertex 2 {m}
    -129.53993607559,58.5297497106292,0,  !- X,Y,Z ==> Vertex 3 {m}
    -129.53993607559,58.5297497106292,12;  !- X,Y,Z ==> Vertex 4 {m}

  Shading:Building:Detailed,
    Shading Surface 52,      !- Name
    ,                        !- Transmittance Schedule Name
    ,                        !- Number of Vertices
    -60.3738495810526,54.5306875124125,12,  !- X,Y,Z ==> Vertex 1 {m}
    -60.3738495810526,54.5306875124125,0,  !- X,Y,Z ==> Vertex 2 {m}
    -58.3639053194611,88.6260789193338,0,  !- X,Y,Z ==> Vertex 3 {m}
    -58.3639053194611,88.6260789193338,12;  !- X,Y,Z ==> Vertex 4 {m}

  Shading:Building:Detailed,
    Shading Surface 53,      !- Name
    ,                        !- Transmittance Schedule Name
    ,                        !- Number of Vertices
    -119.239704676146,99.7328191954621,12,  !- X,Y,Z ==> Vertex 1 {m}
    -119.239704676146,99.7328191954621,0,  !- X,Y,Z ==> Vertex 2 {m}
    -119.574735379285,94.4019463889665,0,  !- X,Y,Z ==> Vertex 3 {m}
    -119.574735379285,94.4019463889665,12;  !- X,Y,Z ==> Vertex 4 {m}

  Shading:Building:Detailed,
    Shading Surface 54,      !- Name
    ,                        !- Transmittance Schedule Name
    ,                        !- Number of Vertices
    -66.9048899957241,96.7335299034283,12,  !- X,Y,Z ==> Vertex 1 {m}
    -66.9048899957241,96.7335299034283,0,  !- X,Y,Z ==> Vertex 2 {m}
    -119.239704676146,99.7328191954621,0,  !- X,Y,Z ==> Vertex 3 {m}
    -119.239704676146,99.7328191954621,12;  !- X,Y,Z ==> Vertex 4 {m}

  Shading:Building:Detailed,
    Shading Surface 55,      !- Name
    ,                        !- Transmittance Schedule Name
    ,                        !- Number of Vertices
    -119.239704676146,99.7328191954621,12,  !- X,Y,Z ==> Vertex 1 {m}
    -119.574735379285,94.4019463889665,12,  !- X,Y,Z ==> Vertex 2 {m}
    -127.44589364085,94.8463200171061,12,  !- X,Y,Z ==> Vertex 3 {m}
    -129.53993607559,58.5297497106292,12,  !- X,Y,Z ==> Vertex 4 {m}
    -60.3738495810526,54.5306875124125,12,  !- X,Y,Z ==> Vertex 5 {m}
    -58.3639053194611,88.6260789193338,12,  !- X,Y,Z ==> Vertex 6 {m}
    -67.3236388680141,89.1814562135975,12,  !- X,Y,Z ==> Vertex 7 {m}
    -66.9048899957241,96.7335299034283,12;  !- X,Y,Z ==> Vertex 8 {m}

  Shading:Building:Detailed,
    Shading Surface 56,      !- Name
    ,                        !- Transmittance Schedule Name
    ,                        !- Number of Vertices
    -142.264539342116,227.230086297881,12,  !- X,Y,Z ==> Vertex 1 {m}
    -142.264539342116,227.230086297881,0,  !- X,Y,Z ==> Vertex 2 {m}
    -144.106581151291,232.894181974888,0,  !- X,Y,Z ==> Vertex 3 {m}
    -144.106581151291,232.894181974888,12;  !- X,Y,Z ==> Vertex 4 {m}

  Shading:Building:Detailed,
    Shading Surface 57,      !- Name
    ,                        !- Transmittance Schedule Name
    ,                        !- Number of Vertices
    -154.825556595872,186.138149015321,12,  !- X,Y,Z ==> Vertex 1 {m}
    -154.825556595872,186.138149015321,0,  !- X,Y,Z ==> Vertex 2 {m}
    -161.44058967178,186.693592855974,0,  !- X,Y,Z ==> Vertex 3 {m}
    -161.44058967178,186.693592855974,12;  !- X,Y,Z ==> Vertex 4 {m}

  Shading:Building:Detailed,
    Shading Surface 58,      !- Name
    ,                        !- Transmittance Schedule Name
    ,                        !- Number of Vertices
    -157.420936952793,204.463101782194,12,  !- X,Y,Z ==> Vertex 1 {m}
    -157.420936952793,204.463101782194,0,  !- X,Y,Z ==> Vertex 2 {m}
    -150.805864432141,206.573101192102,0,  !- X,Y,Z ==> Vertex 3 {m}
    -150.805864432141,206.573101192102,12;  !- X,Y,Z ==> Vertex 4 {m}

  Shading:Building:Detailed,
    Shading Surface 59,      !- Name
    ,                        !- Transmittance Schedule Name
    ,                        !- Number of Vertices
    -181.201388721704,210.794074897923,12,  !- X,Y,Z ==> Vertex 1 {m}
    -181.201388721704,210.794074897923,0,  !- X,Y,Z ==> Vertex 2 {m}
    -185.892089930439,149.378024839002,0,  !- X,Y,Z ==> Vertex 3 {m}
    -185.892089930439,149.378024839002,12;  !- X,Y,Z ==> Vertex 4 {m}

  Shading:Building:Detailed,
    Shading Surface 60,      !- Name
    ,                        !- Transmittance Schedule Name
    ,                        !- Number of Vertices
    -150.47084587956,210.46019369348,12,  !- X,Y,Z ==> Vertex 1 {m}
    -150.47084587956,210.46019369348,0,  !- X,Y,Z ==> Vertex 2 {m}
    -145.865420951616,211.903879597473,0,  !- X,Y,Z ==> Vertex 3 {m}
    -145.865420951616,211.903879597473,12;  !- X,Y,Z ==> Vertex 4 {m}

  Shading:Building:Detailed,
    Shading Surface 61,      !- Name
    ,                        !- Transmittance Schedule Name
    ,                        !- Number of Vertices
    -182.206124368473,213.903779594798,12,  !- X,Y,Z ==> Vertex 1 {m}
    -182.206124368473,213.903779594798,0,  !- X,Y,Z ==> Vertex 2 {m}
    -181.201388721704,210.794074897923,0,  !- X,Y,Z ==> Vertex 3 {m}
    -181.201388721704,210.794074897923,12;  !- X,Y,Z ==> Vertex 4 {m}

  Shading:Building:Detailed,
    Shading Surface 62,      !- Name
    ,                        !- Transmittance Schedule Name
    ,                        !- Number of Vertices
    -178.270077514908,235.44931945526,12,  !- X,Y,Z ==> Vertex 1 {m}
    -178.270077514908,235.44931945526,0,  !- X,Y,Z ==> Vertex 2 {m}
    -179.777806604882,214.681139013661,0,  !- X,Y,Z ==> Vertex 3 {m}
    -179.777806604882,214.681139013661,12;  !- X,Y,Z ==> Vertex 4 {m}

  Shading:Building:Detailed,
    Shading Surface 63,      !- Name
    ,                        !- Transmittance Schedule Name
    ,                        !- Number of Vertices
    -179.777806604882,214.681139013661,12,  !- X,Y,Z ==> Vertex 1 {m}
    -179.777806604882,214.681139013661,0,  !- X,Y,Z ==> Vertex 2 {m}
    -182.206124368473,213.903779594798,0,  !- X,Y,Z ==> Vertex 3 {m}
    -182.206124368473,213.903779594798,12;  !- X,Y,Z ==> Vertex 4 {m}

  Shading:Building:Detailed,
    Shading Surface 64,      !- Name
    ,                        !- Transmittance Schedule Name
    ,                        !- Number of Vertices
    -146.536557391864,149.377124731326,12,  !- X,Y,Z ==> Vertex 1 {m}
    -146.536557391864,149.377124731326,0,  !- X,Y,Z ==> Vertex 2 {m}
    -145.866497652941,158.261909225753,0,  !- X,Y,Z ==> Vertex 3 {m}
    -145.866497652941,158.261909225753,12;  !- X,Y,Z ==> Vertex 4 {m}

  Shading:Building:Detailed,
    Shading Surface 65,      !- Name
    ,                        !- Transmittance Schedule Name
    ,                        !- Number of Vertices
    -144.106581151291,232.894181974888,12,  !- X,Y,Z ==> Vertex 1 {m}
    -144.106581151291,232.894181974888,0,  !- X,Y,Z ==> Vertex 2 {m}
    -178.270077514908,235.44931945526,0,  !- X,Y,Z ==> Vertex 3 {m}
    -178.270077514908,235.44931945526,12;  !- X,Y,Z ==> Vertex 4 {m}

  Shading:Building:Detailed,
    Shading Surface 66,      !- Name
    ,                        !- Transmittance Schedule Name
    ,                        !- Number of Vertices
    -164.120916682843,150.599160281784,12,  !- X,Y,Z ==> Vertex 1 {m}
    -164.120916682843,150.599160281784,0,  !- X,Y,Z ==> Vertex 2 {m}
    -146.536557391864,149.377124731326,0,  !- X,Y,Z ==> Vertex 3 {m}
    -146.536557391864,149.377124731326,12;  !- X,Y,Z ==> Vertex 4 {m}

  Shading:Building:Detailed,
    Shading Surface 67,      !- Name
    ,                        !- Transmittance Schedule Name
    ,                        !- Number of Vertices
    -158.007245356826,196.799975692726,12,  !- X,Y,Z ==> Vertex 1 {m}
    -158.007245356826,196.799975692726,0,  !- X,Y,Z ==> Vertex 2 {m}
    -157.420936952793,204.463101782194,0,  !- X,Y,Z ==> Vertex 3 {m}
    -157.420936952793,204.463101782194,12;  !- X,Y,Z ==> Vertex 4 {m}

  Shading:Building:Detailed,
    Shading Surface 68,      !- Name
    ,                        !- Transmittance Schedule Name
    ,                        !- Number of Vertices
    -145.614148599212,215.34673409625,12,  !- X,Y,Z ==> Vertex 1 {m}
    -145.614148599212,215.34673409625,0,  !- X,Y,Z ==> Vertex 2 {m}
    -143.102100825873,216.124104095704,0,  !- X,Y,Z ==> Vertex 3 {m}
    -143.102100825873,216.124104095704,12;  !- X,Y,Z ==> Vertex 4 {m}

  Shading:Building:Detailed,
    Shading Surface 69,      !- Name
    ,                        !- Transmittance Schedule Name
    ,                        !- Number of Vertices
    -143.102100825873,216.124104095704,12,  !- X,Y,Z ==> Vertex 1 {m}
    -143.102100825873,216.124104095704,0,  !- X,Y,Z ==> Vertex 2 {m}
    -142.264539342116,227.230086297881,0,  !- X,Y,Z ==> Vertex 3 {m}
    -142.264539342116,227.230086297881,12;  !- X,Y,Z ==> Vertex 4 {m}

  Shading:Building:Detailed,
    Shading Surface 70,      !- Name
    ,                        !- Transmittance Schedule Name
    ,                        !- Number of Vertices
    -144.106581151291,232.894181974888,0,  !- X,Y,Z ==> Vertex 1 {m}
    -142.264539342116,227.230086297881,0,  !- X,Y,Z ==> Vertex 2 {m}
    -143.102100825873,216.124104095704,0,  !- X,Y,Z ==> Vertex 3 {m}
    -145.614148599212,215.34673409625,0,  !- X,Y,Z ==> Vertex 4 {m}
    -145.865420951616,211.903879597473,0,  !- X,Y,Z ==> Vertex 5 {m}
    -150.47084587956,210.46019369348,0,  !- X,Y,Z ==> Vertex 6 {m}
    -150.805864432141,206.573101192102,0,  !- X,Y,Z ==> Vertex 7 {m}
    -157.420936952793,204.463101782194,0,  !- X,Y,Z ==> Vertex 8 {m}
    -158.007245356826,196.799975692726,0,  !- X,Y,Z ==> Vertex 9 {m}
    -160.686748580181,197.022154408399,0,  !- X,Y,Z ==> Vertex 10 {m}
    -161.44058967178,186.693592855974,0,  !- X,Y,Z ==> Vertex 11 {m}
    -154.825556595872,186.138149015321,0,  !- X,Y,Z ==> Vertex 12 {m}
    -145.866497652941,158.261909225753,0,  !- X,Y,Z ==> Vertex 13 {m}
    -146.536557391864,149.377124731326,0,  !- X,Y,Z ==> Vertex 14 {m}
    -164.120916682843,150.599160281784,0,  !- X,Y,Z ==> Vertex 15 {m}
    -164.28845228482,147.711604747424,0,  !- X,Y,Z ==> Vertex 16 {m}
    -185.892089930439,149.378024839002,0,  !- X,Y,Z ==> Vertex 17 {m}
    -181.201388721704,210.794074897923,0,  !- X,Y,Z ==> Vertex 18 {m}
    -182.206124368473,213.903779594798,0,  !- X,Y,Z ==> Vertex 19 {m}
    -179.777806604882,214.681139013661,0,  !- X,Y,Z ==> Vertex 20 {m}
    -178.270077514908,235.44931945526,0;  !- X,Y,Z ==> Vertex 21 {m}

  Shading:Building:Detailed,
    Shading Surface 71,      !- Name
    ,                        !- Transmittance Schedule Name
    ,                        !- Number of Vertices
    -164.28845228482,147.711604747424,12,  !- X,Y,Z ==> Vertex 1 {m}
    -164.28845228482,147.711604747424,0,  !- X,Y,Z ==> Vertex 2 {m}
    -164.120916682843,150.599160281784,0,  !- X,Y,Z ==> Vertex 3 {m}
    -164.120916682843,150.599160281784,12;  !- X,Y,Z ==> Vertex 4 {m}

  Shading:Building:Detailed,
    Shading Surface 72,      !- Name
    ,                        !- Transmittance Schedule Name
    ,                        !- Number of Vertices
    -178.270077514908,235.44931945526,12,  !- X,Y,Z ==> Vertex 1 {m}
    -179.777806604882,214.681139013661,12,  !- X,Y,Z ==> Vertex 2 {m}
    -182.206124368473,213.903779594798,12,  !- X,Y,Z ==> Vertex 3 {m}
    -181.201388721704,210.794074897923,12,  !- X,Y,Z ==> Vertex 4 {m}
    -185.892089930439,149.378024839002,12,  !- X,Y,Z ==> Vertex 5 {m}
    -164.28845228482,147.711604747424,12,  !- X,Y,Z ==> Vertex 6 {m}
    -164.120916682843,150.599160281784,12,  !- X,Y,Z ==> Vertex 7 {m}
    -146.536557391864,149.377124731326,12,  !- X,Y,Z ==> Vertex 8 {m}
    -145.866497652941,158.261909225753,12,  !- X,Y,Z ==> Vertex 9 {m}
    -154.825556595872,186.138149015321,12,  !- X,Y,Z ==> Vertex 10 {m}
    -161.44058967178,186.693592855974,12,  !- X,Y,Z ==> Vertex 11 {m}
    -160.686748580181,197.022154408399,12,  !- X,Y,Z ==> Vertex 12 {m}
    -158.007245356826,196.799975692726,12,  !- X,Y,Z ==> Vertex 13 {m}
    -157.420936952793,204.463101782194,12,  !- X,Y,Z ==> Vertex 14 {m}
    -150.805864432141,206.573101192102,12,  !- X,Y,Z ==> Vertex 15 {m}
    -150.47084587956,210.46019369348,12,  !- X,Y,Z ==> Vertex 16 {m}
    -145.865420951616,211.903879597473,12,  !- X,Y,Z ==> Vertex 17 {m}
    -145.614148599212,215.34673409625,12,  !- X,Y,Z ==> Vertex 18 {m}
    -143.102100825873,216.124104095704,12,  !- X,Y,Z ==> Vertex 19 {m}
    -142.264539342116,227.230086297881,12,  !- X,Y,Z ==> Vertex 20 {m}
    -144.106581151291,232.894181974888,12;  !- X,Y,Z ==> Vertex 21 {m}

  Shading:Building:Detailed,
    Shading Surface 73,      !- Name
    ,                        !- Transmittance Schedule Name
    ,                        !- Number of Vertices
    -160.686748580181,197.022154408399,12,  !- X,Y,Z ==> Vertex 1 {m}
    -160.686748580181,197.022154408399,0,  !- X,Y,Z ==> Vertex 2 {m}
    -158.007245356826,196.799975692726,0,  !- X,Y,Z ==> Vertex 3 {m}
    -158.007245356826,196.799975692726,12;  !- X,Y,Z ==> Vertex 4 {m}

  Shading:Building:Detailed,
    Shading Surface 74,      !- Name
    ,                        !- Transmittance Schedule Name
    ,                        !- Number of Vertices
    -161.44058967178,186.693592855974,12,  !- X,Y,Z ==> Vertex 1 {m}
    -161.44058967178,186.693592855974,0,  !- X,Y,Z ==> Vertex 2 {m}
    -160.686748580181,197.022154408399,0,  !- X,Y,Z ==> Vertex 3 {m}
    -160.686748580181,197.022154408399,12;  !- X,Y,Z ==> Vertex 4 {m}

  Shading:Building:Detailed,
    Shading Surface 75,      !- Name
    ,                        !- Transmittance Schedule Name
    ,                        !- Number of Vertices
    -145.865420951616,211.903879597473,12,  !- X,Y,Z ==> Vertex 1 {m}
    -145.865420951616,211.903879597473,0,  !- X,Y,Z ==> Vertex 2 {m}
    -145.614148599212,215.34673409625,0,  !- X,Y,Z ==> Vertex 3 {m}
    -145.614148599212,215.34673409625,12;  !- X,Y,Z ==> Vertex 4 {m}

  Shading:Building:Detailed,
    Shading Surface 76,      !- Name
    ,                        !- Transmittance Schedule Name
    ,                        !- Number of Vertices
    -185.892089930439,149.378024839002,12,  !- X,Y,Z ==> Vertex 1 {m}
    -185.892089930439,149.378024839002,0,  !- X,Y,Z ==> Vertex 2 {m}
    -164.28845228482,147.711604747424,0,  !- X,Y,Z ==> Vertex 3 {m}
    -164.28845228482,147.711604747424,12;  !- X,Y,Z ==> Vertex 4 {m}

  Shading:Building:Detailed,
    Shading Surface 77,      !- Name
    ,                        !- Transmittance Schedule Name
    ,                        !- Number of Vertices
    -150.805864432141,206.573101192102,12,  !- X,Y,Z ==> Vertex 1 {m}
    -150.805864432141,206.573101192102,0,  !- X,Y,Z ==> Vertex 2 {m}
    -150.47084587956,210.46019369348,0,  !- X,Y,Z ==> Vertex 3 {m}
    -150.47084587956,210.46019369348,12;  !- X,Y,Z ==> Vertex 4 {m}

  Shading:Building:Detailed,
    Shading Surface 78,      !- Name
    ,                        !- Transmittance Schedule Name
    ,                        !- Number of Vertices
    -145.866497652941,158.261909225753,12,  !- X,Y,Z ==> Vertex 1 {m}
    -145.866497652941,158.261909225753,0,  !- X,Y,Z ==> Vertex 2 {m}
    -154.825556595872,186.138149015321,0,  !- X,Y,Z ==> Vertex 3 {m}
    -154.825556595872,186.138149015321,12;  !- X,Y,Z ==> Vertex 4 {m}

  Shading:Building:Detailed,
    Shading Surface 100,     !- Name
    ,                        !- Transmittance Schedule Name
    ,                        !- Number of Vertices
    81.5600216438408,-25.3212099609909,12,  !- X,Y,Z ==> Vertex 1 {m}
    80.2204203163517,-42.868695696667,12,  !- X,Y,Z ==> Vertex 2 {m}
    82.6488071727322,-43.0907883668243,12,  !- X,Y,Z ==> Vertex 3 {m}
    81.5603905644566,-58.194952373395,12,  !- X,Y,Z ==> Vertex 4 {m}
    75.5312811008234,-57.7507777828195,12,  !- X,Y,Z ==> Vertex 5 {m}
    74.2753913274119,-74.7429609853428,12,  !- X,Y,Z ==> Vertex 6 {m}
    99.4804823181806,-76.6306785711113,12,  !- X,Y,Z ==> Vertex 7 {m}
    101.1549272118,-54.3076082280684,12,  !- X,Y,Z ==> Vertex 8 {m}
    108.775050071107,-54.8627978630683,12,  !- X,Y,Z ==> Vertex 9 {m}
    109.444809814715,-45.5337529214951,12,  !- X,Y,Z ==> Vertex 10 {m}
    120.581899762473,-46.3109962512951,12,  !- X,Y,Z ==> Vertex 11 {m}
    120.833058504605,-43.0902538167261,12,  !- X,Y,Z ==> Vertex 12 {m}
    143.190975327596,-44.7557468008658,12,  !- X,Y,Z ==> Vertex 13 {m}
    140.428353161796,-81.6276997487817,12,  !- X,Y,Z ==> Vertex 14 {m}
    152.486620371147,-82.5159362203086,12,  !- X,Y,Z ==> Vertex 15 {m}
    156.504891471167,-29.3181404265747,12,  !- X,Y,Z ==> Vertex 16 {m}
    145.535295950088,-28.4298888314761,12,  !- X,Y,Z ==> Vertex 17 {m}
    145.284155321188,-31.9838120200878,12,  !- X,Y,Z ==> Vertex 18 {m}
    121.586481372933,-30.3183479793308,12,  !- X,Y,Z ==> Vertex 19 {m}
    121.837633531037,-26.7644256012066,12,  !- X,Y,Z ==> Vertex 20 {m}
    112.459054524453,-25.9871571740551,12,  !- X,Y,Z ==> Vertex 21 {m}
    112.375341368954,-27.5419976734591,12;  !- X,Y,Z ==> Vertex 22 {m}

  Shading:Building:Detailed,
    Shading Surface 101,     !- Name
    ,                        !- Transmittance Schedule Name
    ,                        !- Number of Vertices
    82.6488071727322,-43.0907883668243,12,  !- X,Y,Z ==> Vertex 1 {m}
    82.6488071727322,-43.0907883668243,0,  !- X,Y,Z ==> Vertex 2 {m}
    81.5603905644566,-58.194952373395,0,  !- X,Y,Z ==> Vertex 3 {m}
    81.5603905644566,-58.194952373395,12;  !- X,Y,Z ==> Vertex 4 {m}

  Shading:Building:Detailed,
    Shading Surface 102,     !- Name
    ,                        !- Transmittance Schedule Name
    ,                        !- Number of Vertices
    80.2204203163517,-42.868695696667,12,  !- X,Y,Z ==> Vertex 1 {m}
    80.2204203163517,-42.868695696667,0,  !- X,Y,Z ==> Vertex 2 {m}
    82.6488071727322,-43.0907883668243,0,  !- X,Y,Z ==> Vertex 3 {m}
    82.6488071727322,-43.0907883668243,12;  !- X,Y,Z ==> Vertex 4 {m}

  Shading:Building:Detailed,
    Shading Surface 79,      !- Name
    ,                        !- Transmittance Schedule Name
    ,                        !- Number of Vertices
    120.833058504605,-43.0902538167261,12,  !- X,Y,Z ==> Vertex 1 {m}
    120.833058504605,-43.0902538167261,0,  !- X,Y,Z ==> Vertex 2 {m}
    143.190975327596,-44.7557468008658,0,  !- X,Y,Z ==> Vertex 3 {m}
    143.190975327596,-44.7557468008658,12;  !- X,Y,Z ==> Vertex 4 {m}

  Shading:Building:Detailed,