  ConvergenceLimits,
    0,                       !- Minimum System Timestep {minutes}
    25;                      !- Maximum HVAC Iterations

  Version,23.1;

  Timestep,1;

  LifeCycleCost:Parameters,
    Life Cycle Cost Parameters,  !- Name
    EndOfYear,               !- Discounting Convention
    ConstantDollar,          !- Inflation Approach
    0.03,                    !- Real Discount Rate
    ,                        !- Nominal Discount Rate
    ,                        !- Inflation
    ,                        !- Base Date Month
    2011,                    !- Base Date Year
    ,                        !- Service Date Month
    2011,                    !- Service Date Year
    25,                      !- Length of Study Period in Years
    ,                        !- Tax rate
    None;                    !- Depreciation Method

  LifeCycleCost:UsePriceEscalation,
    U.S. Avg  Commercial-Electricity,  !- LCC Price Escalation Name
    Electricity,             !- Resource
    2011,                    !- Escalation Start Year
    January,                 !- Escalation Start Month
    0.9838,                  !- Year 1 Escalation
    0.9730,                  !- Year 2 Escalation
    0.9632,                  !- Year 3 Escalation
    0.9611,                  !- Year 4 Escalation
    0.9571,                  !- Year 5 Escalation
    0.9553,                  !- Year 6 Escalation
    0.9539,                  !- Year 7 Escalation
    0.9521,                  !- Year 8 Escalation
    0.9546,                  !- Year 9 Escalation
    0.9550,                  !- <none>
    0.9553,                  !- <none>
    0.9564,                  !- <none>
    0.9575,                  !- <none>
    0.9596,                  !- <none>
    0.9618,                  !- <none>
    0.9614,                  !- <none>
    0.9618,                  !- <none>
    0.9618,                  !- <none>
    0.9593,                  !- <none>
    0.9589,                  !- <none>
    0.9607,                  !- <none>
    0.9625,                  !- <none>
    0.9650,                  !- <none>
    0.9708,                  !- <none>
    0.9751,                  !- <none>
    0.9762,                  !- <none>
    0.9766,                  !- <none>
    0.9766,                  !- <none>
    0.9769,                  !- <none>
    0.9773;                  !- <none>

  LifeCycleCost:UsePriceEscalation,
    U.S. Avg  Commercial-Distillate Oil,  !- LCC Price Escalation Name
    FuelOilNo1,              !- Resource
    2011,                    !- Escalation Start Year
    January,                 !- Escalation Start Month
    0.9714,                  !- Year 1 Escalation
    0.9730,                  !- Year 2 Escalation
    0.9942,                  !- Year 3 Escalation
    1.0164,                  !- Year 4 Escalation
    1.0541,                  !- Year 5 Escalation
    1.0928,                  !- Year 6 Escalation
    1.1267,                  !- Year 7 Escalation
    1.1580,                  !- Year 8 Escalation
    1.1792,                  !- Year 9 Escalation
    1.1967,                  !- <none>
    1.2200,                  !- <none>
    1.2333,                  !- <none>
    1.2566,                  !- <none>
    1.2709,                  !- <none>
    1.2826,                  !- <none>
    1.2985,                  !- <none>
    1.3102,                  !- <none>
    1.3250,                  !- <none>
    1.3261,                  !- <none>
    1.3282,                  !- <none>
    1.3324,                  !- <none>
    1.3356,                  !- <none>
    1.3431,                  !- <none>
    1.3510,                  !- <none>
    1.3568,                  !- <none>
    1.3606,                  !- <none>
    1.3637,                  !- <none>
    1.3674,                  !- <none>
    1.3706,                  !- <none>
    1.3743;                  !- <none>

  LifeCycleCost:UsePriceEscalation,
    U.S. Avg  Commercial-Residual Oil,  !- LCC Price Escalation Name
    FuelOilNo2,              !- Resource
    2011,                    !- Escalation Start Year
    January,                 !- Escalation Start Month
    0.8469,                  !- Year 1 Escalation
    0.8257,                  !- Year 2 Escalation
    0.8681,                  !- Year 3 Escalation
    0.8988,                  !- Year 4 Escalation
    0.9289,                  !- Year 5 Escalation
    0.9604,                  !- Year 6 Escalation
    0.9897,                  !- Year 7 Escalation
    1.0075,                  !- Year 8 Escalation
    1.0314,                  !- Year 9 Escalation
    1.0554,                  !- <none>
    1.0861,                  !- <none>
    1.1278,                  !- <none>
    1.1497,                  !- <none>
    1.1620,                  !- <none>
    1.1743,                  !- <none>
    1.1852,                  !- <none>
    1.1948,                  !- <none>
    1.2037,                  !- <none>
    1.2071,                  !- <none>
    1.2119,                  !- <none>
    1.2139,                  !- <none>
    1.2194,                  !- <none>
    1.2276,                  !- <none>
    1.2365,                  !- <none>
    1.2420,                  !- <none>
    1.2461,                  !- <none>
    1.2509,                  !- <none>
    1.2550,                  !- <none>
    1.2591,                  !- <none>
    1.2638;                  !- <none>

  LifeCycleCost:UsePriceEscalation,
    U.S. Avg  Commercial-Natural gas,  !- LCC Price Escalation Name
    NaturalGas,              !- Resource
    2011,                    !- Escalation Start Year
    January,                 !- Escalation Start Month
    0.9823,                  !- Year 1 Escalation
    0.9557,                  !- Year 2 Escalation
    0.9279,                  !- Year 3 Escalation
    0.9257,                  !- Year 4 Escalation
    0.9346,                  !- Year 5 Escalation
    0.9412,                  !- Year 6 Escalation
    0.9512,                  !- Year 7 Escalation
    0.9645,                  !- Year 8 Escalation
    0.9856,                  !- Year 9 Escalation
    1.0067,                  !- <none>
    1.0222,                  !- <none>
    1.0410,                  !- <none>
    1.0610,                  !- <none>
    1.0787,                  !- <none>
    1.0942,                  !- <none>
    1.1098,                  !- <none>
    1.1220,                  !- <none>
    1.1308,                  !- <none>
    1.1386,                  !- <none>
    1.1486,                  !- <none>
    1.1619,                  !- <none>
    1.1763,                  !- <none>
    1.1918,                  !- <none>
    1.2118,                  !- <none>
    1.2284,                  !- <none>
    1.2439,                  !- <none>
    1.2605,                  !- <none>
    1.2772,                  !- <none>
    1.2938,                  !- <none>
    1.3115;                  !- <none>

  LifeCycleCost:UsePriceEscalation,
    U.S. Avg  Commercial-Coal,  !- LCC Price Escalation Name
    Coal,                    !- Resource
    2011,                    !- Escalation Start Year
    January,                 !- Escalation Start Month
    0.9970,                  !- Year 1 Escalation
    1.0089,                  !- Year 2 Escalation
    1.0089,                  !- Year 3 Escalation
    0.9941,                  !- Year 4 Escalation
    0.9941,                  !- Year 5 Escalation
    1.0000,                  !- Year 6 Escalation
    1.0030,                  !- Year 7 Escalation
    1.0059,                  !- Year 8 Escalation
    1.0089,                  !- Year 9 Escalation
    1.0119,                  !- <none>
    1.0148,                  !- <none>
    1.0178,                  !- <none>
    1.0208,                  !- <none>
    1.0267,                  !- <none>
    1.0297,                  !- <none>
    1.0356,                  !- <none>
    1.0415,                  !- <none>
    1.0534,                  !- <none>
    1.0564,                  !- <none>
    1.0593,                  !- <none>
    1.0653,                  !- <none>
    1.0712,                  !- <none>
    1.0742,                  !- <none>
    1.0801,                  !- <none>
    1.0831,                  !- <none>
    1.0831,                  !- <none>
    1.0861,                  !- <none>
    1.0890,                  !- <none>
    1.0920,                  !- <none>
    1.0950;                  !- <none>

  Building,
    bld_32,                  !- Name
    ,                        !- North Axis {deg}
    City,                    !- Terrain
    ,                        !- Loads Convergence Tolerance Value {W}
    ,                        !- Temperature Convergence Tolerance Value {deltaC}
    ,                        !- Solar Distribution
    ,                        !- Maximum Number of Warmup Days
    ;                        !- Minimum Number of Warmup Days

  Shading:Building:Detailed,
    Shading Surface 1,       !- Name
    ,                        !- Transmittance Schedule Name
    ,                        !- Number of Vertices
    8.87568364186935,-17.2142961870253,12,  !- X,Y,Z ==> Vertex 1 {m}
    8.87568364186935,-17.2142961870253,0,  !- X,Y,Z ==> Vertex 2 {m}
    0.251198585117715,-16.9921815859439,0,  !- X,Y,Z ==> Vertex 3 {m}
    0.251198585117715,-16.9921815859439,12;  !- X,Y,Z ==> Vertex 4 {m}

  Shading:Building:Detailed,
    Shading Surface 2,       !- Name
    ,                        !- Transmittance Schedule Name
    ,                        !- Number of Vertices
    8.87568364186935,-17.2142961870253,0,  !- X,Y,Z ==> Vertex 1 {m}
    8.28957499994583,-35.9834381024691,0,  !- X,Y,Z ==> Vertex 2 {m}
    -0.334932313624495,-35.7613228121113,0,  !- X,Y,Z ==> Vertex 3 {m}
    0.251198585117715,-16.9921815859439,0;  !- X,Y,Z ==> Vertex 4 {m}

  Shading:Building:Detailed,
    Shading Surface 3,       !- Name
    ,                        !- Transmittance Schedule Name
    ,                        !- Number of Vertices
    0.251198585117715,-16.9921815859439,12,  !- X,Y,Z ==> Vertex 1 {m}
    -0.334932313624495,-35.7613228121113,12,  !- X,Y,Z ==> Vertex 2 {m}
    8.28957499994583,-35.9834381024691,12,  !- X,Y,Z ==> Vertex 3 {m}
    8.87568364186935,-17.2142961870253,12;  !- X,Y,Z ==> Vertex 4 {m}

  Shading:Building:Detailed,
    Shading Surface 4,       !- Name
    ,                        !- Transmittance Schedule Name
    ,                        !- Number of Vertices
    -0.334932313624495,-35.7613228121113,12,  !- X,Y,Z ==> Vertex 1 {m}
    -0.334932313624495,-35.7613228121113,0,  !- X,Y,Z ==> Vertex 2 {m}
    8.28957499994583,-35.9834381024691,0,  !- X,Y,Z ==> Vertex 3 {m}
    8.28957499994583,-35.9834381024691,12;  !- X,Y,Z ==> Vertex 4 {m}

  Shading:Building:Detailed,
    Shading Surface 5,       !- Name
    ,                        !- Transmittance Schedule Name
    ,                        !- Number of Vertices
    8.28957499994583,-35.9834381024691,12,  !- X,Y,Z ==> Vertex 1 {m}
    8.28957499994583,-35.9834381024691,0,  !- X,Y,Z ==> Vertex 2 {m}
    8.87568364186935,-17.2142961870253,0,  !- X,Y,Z ==> Vertex 3 {m}
    8.87568364186935,-17.2142961870253,12;  !- X,Y,Z ==> Vertex 4 {m}

  Shading:Building:Detailed,
    Shading Surface 6,       !- Name
    ,                        !- Transmittance Schedule Name
    ,                        !- Number of Vertices
    0.251198585117715,-16.9921815859439,12,  !- X,Y,Z ==> Vertex 1 {m}
    0.251198585117715,-16.9921815859439,0,  !- X,Y,Z ==> Vertex 2 {m}
    -0.334932313624495,-35.7613228121113,0,  !- X,Y,Z ==> Vertex 3 {m}
    -0.334932313624495,-35.7613228121113,12;  !- X,Y,Z ==> Vertex 4 {m}

  Shading:Building:Detailed,
    Shading Surface 45,      !- Name
    ,                        !- Transmittance Schedule Name
    ,                        !- Number of Vertices
    -224.073402057609,-155.258423029361,12,  !- X,Y,Z ==> Vertex 1 {m}
    -224.073402057609,-155.258423029361,0,  !- X,Y,Z ==> Vertex 2 {m}
    -223.822092653446,-151.815571234433,0,  !- X,Y,Z ==> Vertex 3 {m}
    -223.822092653446,-151.815571234433,12;  !- X,Y,Z ==> Vertex 4 {m}

  Shading:Building:Detailed,
    Shading Surface 46,      !- Name
    ,                        !- Transmittance Schedule Name
    ,                        !- Number of Vertices
    -242.497124213388,-219.450499574324,12,  !- X,Y,Z ==> Vertex 1 {m}
    -242.497124213388,-219.450499574324,0,  !- X,Y,Z ==> Vertex 2 {m}
    -242.329557536088,-216.562945844341,0,  !- X,Y,Z ==> Vertex 3 {m}
    -242.329557536088,-216.562945844341,12;  !- X,Y,Z ==> Vertex 4 {m}

  Shading:Building:Detailed,
    Shading Surface 47,      !- Name
    ,                        !- Transmittance Schedule Name
    ,                        !- Number of Vertices
    -256.477805210996,-131.712634369754,12,  !- X,Y,Z ==> Vertex 1 {m}
    -257.985757807032,-152.480798588959,12,  !- X,Y,Z ==> Vertex 2 {m}
    -260.414083935369,-153.258131869847,12,  !- X,Y,Z ==> Vertex 3 {m}
    -259.409381755593,-156.367847382224,12,  !- X,Y,Z ==> Vertex 4 {m}
    -264.100743915149,-217.783846945341,12,  !- X,Y,Z ==> Vertex 5 {m}
    -242.497124213388,-219.450499574324,12,  !- X,Y,Z ==> Vertex 6 {m}
    -242.329557536088,-216.562945844341,12,  !- X,Y,Z ==> Vertex 7 {m}
    -224.745211404029,-217.785170666391,12,  !- X,Y,Z ==> Vertex 8 {m}
    -224.075056048712,-208.900393387115,12,  !- X,Y,Z ==> Vertex 9 {m}
    -233.033814987123,-181.024057170193,12,  !- X,Y,Z ==> Vertex 10 {m}
    -239.648842082511,-180.468542127434,12,  !- X,Y,Z ==> Vertex 11 {m}
    -238.894889836115,-170.139988688959,12,  !- X,Y,Z ==> Vertex 12 {m}
    -236.215389005005,-170.362196246,12,  !- X,Y,Z ==> Vertex 13 {m}
    -235.628998131165,-162.699076466628,12,  !- X,Y,Z ==> Vertex 14 {m}
    -229.01390290565,-160.58914825873,12,  !- X,Y,Z ==> Vertex 15 {m}
    -228.678842520515,-156.70205936271,12,  !- X,Y,Z ==> Vertex 16 {m}
    -224.073402057609,-155.258423029361,12,  !- X,Y,Z ==> Vertex 17 {m}
    -223.822092653446,-151.815571234433,12,  !- X,Y,Z ==> Vertex 18 {m}
    -221.310036515109,-151.038228273373,12,  !- X,Y,Z ==> Vertex 19 {m}
    -220.472355509387,-139.932255083132,12,  !- X,Y,Z ==> Vertex 20 {m}
    -222.314336360862,-134.26813957716,12;  !- X,Y,Z ==> Vertex 21 {m}

  Shading:Building:Detailed,
    Shading Surface 48,      !- Name
    ,                        !- Transmittance Schedule Name
    ,                        !- Number of Vertices
    -221.310036515109,-151.038228273373,12,  !- X,Y,Z ==> Vertex 1 {m}
    -221.310036515109,-151.038228273373,0,  !- X,Y,Z ==> Vertex 2 {m}
    -220.472355509387,-139.932255083132,0,  !- X,Y,Z ==> Vertex 3 {m}
    -220.472355509387,-139.932255083132,12;  !- X,Y,Z ==> Vertex 4 {m}

  Shading:Building:Detailed,
    Shading Surface 49,      !- Name
    ,                        !- Transmittance Schedule Name
    ,                        !- Number of Vertices
    -264.100743915149,-217.783846945341,12,  !- X,Y,Z ==> Vertex 1 {m}
    -264.100743915149,-217.783846945341,0,  !- X,Y,Z ==> Vertex 2 {m}
    -242.497124213388,-219.450499574324,0,  !- X,Y,Z ==> Vertex 3 {m}
    -242.497124213388,-219.450499574324,12;  !- X,Y,Z ==> Vertex 4 {m}

  Shading:Building:Detailed,
    Shading Surface 50,      !- Name
    ,                        !- Transmittance Schedule Name
    ,                        !- Number of Vertices
    -220.472355509387,-139.932255083132,12,  !- X,Y,Z ==> Vertex 1 {m}
    -220.472355509387,-139.932255083132,0,  !- X,Y,Z ==> Vertex 2 {m}
    -222.314336360862,-134.26813957716,0,  !- X,Y,Z ==> Vertex 3 {m}
    -222.314336360862,-134.26813957716,12;  !- X,Y,Z ==> Vertex 4 {m}

  Shading:Building:Detailed,
    Shading Surface 51,      !- Name
    ,                        !- Transmittance Schedule Name
    ,                        !- Number of Vertices
    -222.314336360862,-134.26813957716,0,  !- X,Y,Z ==> Vertex 1 {m}
    -220.472355509387,-139.932255083132,0,  !- X,Y,Z ==> Vertex 2 {m}
    -221.310036515109,-151.038228273373,0,  !- X,Y,Z ==> Vertex 3 {m}
    -223.822092653446,-151.815571234433,0,  !- X,Y,Z ==> Vertex 4 {m}
    -224.073402057609,-155.258423029361,0,  !- X,Y,Z ==> Vertex 5 {m}
    -228.678842520515,-156.70205936271,0,  !- X,Y,Z ==> Vertex 6 {m}
    -229.01390290565,-160.58914825873,0,  !- X,Y,Z ==> Vertex 7 {m}
    -235.628998131165,-162.699076466628,0,  !- X,Y,Z ==> Vertex 8 {m}
    -236.215389005005,-170.362196246,0,  !- X,Y,Z ==> Vertex 9 {m}
    -238.894889836115,-170.139988688959,0,  !- X,Y,Z ==> Vertex 10 {m}
    -239.648842082511,-180.468542127434,0,  !- X,Y,Z ==> Vertex 11 {m}
    -233.033814987123,-181.024057170193,0,  !- X,Y,Z ==> Vertex 12 {m}
    -224.075056048712,-208.900393387115,0,  !- X,Y,Z ==> Vertex 13 {m}
    -224.745211404029,-217.785170666391,0,  !- X,Y,Z ==> Vertex 14 {m}
    -242.329557536088,-216.562945844341,0,  !- X,Y,Z ==> Vertex 15 {m}
    -242.497124213388,-219.450499574324,0,  !- X,Y,Z ==> Vertex 16 {m}
    -264.100743915149,-217.783846945341,0,  !- X,Y,Z ==> Vertex 17 {m}
    -259.409381755593,-156.367847382224,0,  !- X,Y,Z ==> Vertex 18 {m}
    -260.414083935369,-153.258131869847,0,  !- X,Y,Z ==> Vertex 19 {m}
    -257.985757807032,-152.480798588959,0,  !- X,Y,Z ==> Vertex 20 {m}
    -256.477805210996,-131.712634369754,0;  !- X,Y,Z ==> Vertex 21 {m}

  Shading:Building:Detailed,
    Shading Surface 52,      !- Name
    ,                        !- Transmittance Schedule Name
    ,                        !- Number of Vertices
    -236.215389005005,-170.362196246,12,  !- X,Y,Z ==> Vertex 1 {m}
    -236.215389005005,-170.362196246,0,  !- X,Y,Z ==> Vertex 2 {m}
    -235.628998131165,-162.699076466628,0,  !- X,Y,Z ==> Vertex 3 {m}
    -235.628998131165,-162.699076466628,12;  !- X,Y,Z ==> Vertex 4 {m}

  Shading:Building:Detailed,
    Shading Surface 53,      !- Name
    ,                        !- Transmittance Schedule Name
    ,                        !- Number of Vertices
    -260.414083935369,-153.258131869847,12,  !- X,Y,Z ==> Vertex 1 {m}
    -260.414083935369,-153.258131869847,0,  !- X,Y,Z ==> Vertex 2 {m}
    -259.409381755593,-156.367847382224,0,  !- X,Y,Z ==> Vertex 3 {m}
    -259.409381755593,-156.367847382224,12;  !- X,Y,Z ==> Vertex 4 {m}

  Shading:Building:Detailed,
    Shading Surface 54,      !- Name
    ,                        !- Transmittance Schedule Name
    ,                        !- Number of Vertices
    -235.628998131165,-162.699076466628,12,  !- X,Y,Z ==> Vertex 1 {m}
    -235.628998131165,-162.699076466628,0,  !- X,Y,Z ==> Vertex 2 {m}
    -229.01390290565,-160.58914825873,0,  !- X,Y,Z ==> Vertex 3 {m}
    -229.01390290565,-160.58914825873,12;  !- X,Y,Z ==> Vertex 4 {m}

  Shading:Building:Detailed,
    Shading Surface 55,      !- Name
    ,                        !- Transmittance Schedule Name
    ,                        !- Number of Vertices
    -238.894889836115,-170.139988688959,12,  !- X,Y,Z ==> Vertex 1 {m}
    -238.894889836115,-170.139988688959,0,  !- X,Y,Z ==> Vertex 2 {m}
    -236.215389005005,-170.362196246,0,  !- X,Y,Z ==> Vertex 3 {m}
    -236.215389005005,-170.362196246,12;  !- X,Y,Z ==> Vertex 4 {m}

  Shading:Building:Detailed,
    Shading Surface 56,      !- Name
    ,                        !- Transmittance Schedule Name
    ,                        !- Number of Vertices
    -259.409381755593,-156.367847382224,12,  !- X,Y,Z ==> Vertex 1 {m}
    -259.409381755593,-156.367847382224,0,  !- X,Y,Z ==> Vertex 2 {m}
    -264.100743915149,-217.783846945341,0,  !- X,Y,Z ==> Vertex 3 {m}
    -264.100743915149,-217.783846945341,12;  !- X,Y,Z ==> Vertex 4 {m}

  Shading:Building:Detailed,
    Shading Surface 57,      !- Name
    ,                        !- Transmittance Schedule Name
    ,                        !- Number of Vertices
    -233.033814987123,-181.024057170193,12,  !- X,Y,Z ==> Vertex 1 {m}
    -233.033814987123,-181.024057170193,0,  !- X,Y,Z ==> Vertex 2 {m}
    -239.648842082511,-180.468542127434,0,  !- X,Y,Z ==> Vertex 3 {m}
    -239.648842082511,-180.468542127434,12;  !- X,Y,Z ==> Vertex 4 {m}

  Shading:Building:Detailed,
    Shading Surface 58,      !- Name
    ,                        !- Transmittance Schedule Name
    ,                        !- Number of Vertices
    -224.075056048712,-208.900393387115,12,  !- X,Y,Z ==> Vertex 1 {m}
    -224.075056048712,-208.900393387115,0,  !- X,Y,Z ==> Vertex 2 {m}
    -233.033814987123,-181.024057170193,0,  !- X,Y,Z ==> Vertex 3 {m}
    -233.033814987123,-181.024057170193,12;  !- X,Y,Z ==> Vertex 4 {m}

  Shading:Building:Detailed,
    Shading Surface 59,      !- Name
    ,                        !- Transmittance Schedule Name
    ,                        !- Number of Vertices
    -242.329557536088,-216.562945844341,12,  !- X,Y,Z ==> Vertex 1 {m}
    -242.329557536088,-216.562945844341,0,  !- X,Y,Z ==> Vertex 2 {m}
    -224.745211404029,-217.785170666391,0,  !- X,Y,Z ==> Vertex 3 {m}
    -224.745211404029,-217.785170666391,12;  !- X,Y,Z ==> Vertex 4 {m}

  Shading:Building:Detailed,
    Shading Surface 60,      !- Name
    ,                        !- Transmittance Schedule Name
    ,                        !- Number of Vertices
    -222.314336360862,-134.26813957716,12,  !- X,Y,Z ==> Vertex 1 {m}
    -222.314336360862,-134.26813957716,0,  !- X,Y,Z ==> Vertex 2 {m}
    -256.477805210996,-131.712634369754,0,  !- X,Y,Z ==> Vertex 3 {m}
    -256.477805210996,-131.712634369754,12;  !- X,Y,Z ==> Vertex 4 {m}

  Shading:Building:Detailed,
    Shading Surface 61,      !- Name
    ,                        !- Transmittance Schedule Name
    ,                        !- Number of Vertices
    -256.477805210996,-131.712634369754,12,  !- X,Y,Z ==> Vertex 1 {m}
    -256.477805210996,-131.712634369754,0,  !- X,Y,Z ==> Vertex 2 {m}
    -257.985757807032,-152.480798588959,0,  !- X,Y,Z ==> Vertex 3 {m}
    -257.985757807032,-152.480798588959,12;  !- X,Y,Z ==> Vertex 4 {m}

  Shading:Building:Detailed,
    Shading Surface 62,      !- Name
    ,                        !- Transmittance Schedule Name
    ,                        !- Number of Vertices
    -229.01390290565,-160.58914825873,12,  !- X,Y,Z ==> Vertex 1 {m}
    -229.01390290565,-160.58914825873,0,  !- X,Y,Z ==> Vertex 2 {m}
    -228.678842520515,-156.70205936271,0,  !- X,Y,Z ==> Vertex 3 {m}
    -228.678842520515,-156.70205936271,12;  !- X,Y,Z ==> Vertex 4 {m}

  Shading:Building:Detailed,
    Shading Surface 63,      !- Name
    ,                        !- Transmittance Schedule Name
    ,                        !- Number of Vertices
    -257.985757807032,-152.480798588959,12,  !- X,Y,Z ==> Vertex 1 {m}
    -257.985757807032,-152.480798588959,0,  !- X,Y,Z ==> Vertex 2 {m}
    -260.414083935369,-153.258131869847,0,  !- X,Y,Z ==> Vertex 3 {m}
    -260.414083935369,-153.258131869847,12;  !- X,Y,Z ==> Vertex 4 {m}

  Shading:Building:Detailed,
    Shading Surface 64,      !- Name
    ,                        !- Transmittance Schedule Name
    ,                        !- Number of Vertices
    -228.678842520515,-156.70205936271,12,  !- X,Y,Z ==> Vertex 1 {m}
    -228.678842520515,-156.70205936271,0,  !- X,Y,Z ==> Vertex 2 {m}
    -224.073402057609,-155.258423029361,0,  !- X,Y,Z ==> Vertex 3 {m}
    -224.073402057609,-155.258423029361,12;  !- X,Y,Z ==> Vertex 4 {m}

  Shading:Building:Detailed,
    Shading Surface 65,      !- Name
    ,                        !- Transmittance Schedule Name
    ,                        !- Number of Vertices
    -239.648842082511,-180.468542127434,12,  !- X,Y,Z ==> Vertex 1 {m}
    -239.648842082511,-180.468542127434,0,  !- X,Y,Z ==> Vertex 2 {m}
    -238.894889836115,-170.139988688959,0,  !- X,Y,Z ==> Vertex 3 {m}
    -238.894889836115,-170.139988688959,12;  !- X,Y,Z ==> Vertex 4 {m}

  Shading:Building:Detailed,
    Shading Surface 66,      !- Name
    ,                        !- Transmittance Schedule Name
    ,                        !- Number of Vertices
    -224.745211404029,-217.785170666391,12,  !- X,Y,Z ==> Vertex 1 {m}
    -224.745211404029,-217.785170666391,0,  !- X,Y,Z ==> Vertex 2 {m}
    -224.075056048712,-208.900393387115,0,  !- X,Y,Z ==> Vertex 3 {m}
    -224.075056048712,-208.900393387115,12;  !- X,Y,Z ==> Vertex 4 {m}

  Shading:Building:Detailed,
    Shading Surface 67,      !- Name
    ,                        !- Transmittance Schedule Name
    ,                        !- Number of Vertices
    -223.822092653446,-151.815571234433,12,  !- X,Y,Z ==> Vertex 1 {m}
    -223.822092653446,-151.815571234433,0,  !- X,Y,Z ==> Vertex 2 {m}
    -221.310036515109,-151.038228273373,0,  !- X,Y,Z ==> Vertex 3 {m}
    -221.310036515109,-151.038228273373,12;  !- X,Y,Z ==> Vertex 4 {m}

  Shading:Building:Detailed,
    Shading Surface 68,      !- Name
    ,                        !- Transmittance Schedule Name
    ,                        !- Number of Vertices
    -251.453296878359,-118.496671145048,12,  !- X,Y,Z ==> Vertex 1 {m}
    -251.453296878359,-118.496671145048,0,  !- X,Y,Z ==> Vertex 2 {m}
    -250.113055456761,-104.058918369471,0,  !- X,Y,Z ==> Vertex 3 {m}
    -250.113055456761,-104.058918369471,12;  !- X,Y,Z ==> Vertex 4 {m}

  Shading:Building:Detailed,
    Shading Surface 69,      !- Name
    ,                        !- Transmittance Schedule Name
    ,                        !- Number of Vertices
    -248.855404468214,-56.0810424231057,12,  !- X,Y,Z ==> Vertex 1 {m}
    -248.855404468214,-56.0810424231057,0,  !- X,Y,Z ==> Vertex 2 {m}
    -261.666557263858,-54.858932378215,0,  !- X,Y,Z ==> Vertex 3 {m}
    -261.666557263858,-54.858932378215,12;  !- X,Y,Z ==> Vertex 4 {m}

  Shading:Building:Detailed,
    Shading Surface 70,      !- Name
    ,                        !- Transmittance Schedule Name
    ,                        !- Number of Vertices
    -262.085367952085,-58.8570773591818,12,  !- X,Y,Z ==> Vertex 1 {m}
    -262.085367952085,-58.8570773591818,0,  !- X,Y,Z ==> Vertex 2 {m}
    -275.398923397976,-57.6349249733255,0,  !- X,Y,Z ==> Vertex 3 {m}
    -275.398923397976,-57.6349249733255,12;  !- X,Y,Z ==> Vertex 4 {m}

  Shading:Building:Detailed,
    Shading Surface 71,      !- Name
    ,                        !- Transmittance Schedule Name
    ,                        !- Number of Vertices
    -250.698204008213,-75.4054191627444,12,  !- X,Y,Z ==> Vertex 1 {m}
    -250.698204008213,-75.4054191627444,0,  !- X,Y,Z ==> Vertex 2 {m}
    -248.855404468214,-56.0810424231057,0,  !- X,Y,Z ==> Vertex 3 {m}
    -248.855404468214,-56.0810424231057,12;  !- X,Y,Z ==> Vertex 4 {m}

  Shading:Building:Detailed,
    Shading Surface 72,      !- Name
    ,                        !- Transmittance Schedule Name
    ,                        !- Number of Vertices
    -265.268832346107,-102.614601005864,12,  !- X,Y,Z ==> Vertex 1 {m}
    -265.268832346107,-102.614601005864,0,  !- X,Y,Z ==> Vertex 2 {m}
    -262.58832584547,-74.2943992486647,0,  !- X,Y,Z ==> Vertex 3 {m}
    -262.58832584547,-74.2943992486647,12;  !- X,Y,Z ==> Vertex 4 {m}

  Shading:Building:Detailed,
    Shading Surface 73,      !- Name
    ,                        !- Transmittance Schedule Name
    ,                        !- Number of Vertices
    -275.398923397976,-57.6349249733255,12,  !- X,Y,Z ==> Vertex 1 {m}
    -275.398923397976,-57.6349249733255,0,  !- X,Y,Z ==> Vertex 2 {m}
    -280.843834633717,-115.719094926914,0,  !- X,Y,Z ==> Vertex 3 {m}
    -280.843834633717,-115.719094926914,12;  !- X,Y,Z ==> Vertex 4 {m}

  Shading:Building:Detailed,
    Shading Surface 74,      !- Name
    ,                        !- Transmittance Schedule Name
    ,                        !- Number of Vertices
    -261.666557263858,-54.858932378215,12,  !- X,Y,Z ==> Vertex 1 {m}
    -261.666557263858,-54.858932378215,0,  !- X,Y,Z ==> Vertex 2 {m}
    -262.085367952085,-58.8570773591818,0,  !- X,Y,Z ==> Vertex 3 {m}
    -262.085367952085,-58.8570773591818,12;  !- X,Y,Z ==> Vertex 4 {m}

  Shading:Building:Detailed,
    Shading Surface 75,      !- Name
    ,                        !- Transmittance Schedule Name
    ,                        !- Number of Vertices
    -261.666557263858,-54.858932378215,12,  !- X,Y,Z ==> Vertex 1 {m}
    -262.085367952085,-58.8570773591818,12,  !- X,Y,Z ==> Vertex 2 {m}
    -275.398923397976,-57.6349249733255,12,  !- X,Y,Z ==> Vertex 3 {m}
    -280.843834633717,-115.719094926914,12,  !- X,Y,Z ==> Vertex 4 {m}
    -251.453296878359,-118.496671145048,12,  !- X,Y,Z ==> Vertex 5 {m}
    -250.113055456761,-104.058918369471,12,  !- X,Y,Z ==> Vertex 6 {m}
    -265.268832346107,-102.614601005864,12,  !- X,Y,Z ==> Vertex 7 {m}
    -262.58832584547,-74.2943992486647,12,  !- X,Y,Z ==> Vertex 8 {m}
    -250.698204008213,-75.4054191627444,12,  !- X,Y,Z ==> Vertex 9 {m}
    -248.855404468214,-56.0810424231057,12;  !- X,Y,Z ==> Vertex 10 {m}

  Shading:Building:Detailed,
    Shading Surface 76,      !- Name
    ,                        !- Transmittance Schedule Name
    ,                        !- Number of Vertices
    -280.843834633717,-115.719094926914,12,  !- X,Y,Z ==> Vertex 1 {m}
    -280.843834633717,-115.719094926914,0,  !- X,Y,Z ==> Vertex 2 {m}
    -251.453296878359,-118.496671145048,0,  !- X,Y,Z ==> Vertex 3 {m}
    -251.453296878359,-118.496671145048,12;  !- X,Y,Z ==> Vertex 4 {m}

  Shading:Building:Detailed,
    Shading Surface 77,      !- Name
    ,                        !- Transmittance Schedule Name
    ,                        !- Number of Vertices
    -262.58832584547,-74.2943992486647,12,  !- X,Y,Z ==> Vertex 1 {m}
    -262.58832584547,-74.2943992486647,0,  !- X,Y,Z ==> Vertex 2 {m}
    -250.698204008213,-75.4054191627444,0,  !- X,Y,Z ==> Vertex 3 {m}
    -250.698204008213,-75.4054191627444,12;  !- X,Y,Z ==> Vertex 4 {m}

  Shading:Building:Detailed,
    Shading Surface 78,      !- Name
    ,                        !- Transmittance Schedule Name
    ,                        !- Number of Vertices
    -248.855404468214,-56.0810424231057,0,  !- X,Y,Z ==> Vertex 1 {m}
    -250.698204008213,-75.4054191627444,0,  !- X,Y,Z ==> Vertex 2 {m}