  ConvergenceLimits,
    0,                       !- Minimum System Timestep {minutes}
    25;                      !- Maximum HVAC Iterations

  Version,23.1;

  Timestep,1;

  LifeCycleCost:Parameters,
    Life Cycle Cost Parameters,  !- Name
    EndOfYear,               !- Discounting Convention
    ConstantDollar,          !- Inflation Approach
    0.03,                    !- Real Discount Rate
    ,                        !- Nominal Discount Rate
    ,                        !- Inflation
    ,                        !- Base Date Month
    2011,                    !- Base Date Year
    ,                        !- Service Date Month
    2011,                    !- Service Date Year
    25,                      !- Length of Study Period in Years
    ,                        !- Tax rate
    None;                    !- Depreciation Method

  LifeCycleCost:UsePriceEscalation,
    U.S. Avg  Commercial-Electricity,  !- LCC Price Escalation Name
    Electricity,             !- Resource
    2011,                    !- Escalation Start Year
    January,                 !- Escalation Start Month
    0.9838,                  !- Year 1 Escalation
    0.9730,                  !- Year 2 Escalation
    0.9632,                  !- Year 3 Escalation
    0.9611,                  !- Year 4 Escalation
    0.9571,                  !- Year 5 Escalation
    0.9553,                  !- Year 6 Escalation
    0.9539,                  !- Year 7 Escalation
    0.9521,                  !- Year 8 Escalation
    0.9546,                  !- Year 9 Escalation
    0.9550,                  !- <none>
    0.9553,                  !- <none>
    0.9564,                  !- <none>
    0.9575,                  !- <none>
    0.9596,                  !- <none>
    0.9618,                  !- <none>
    0.9614,                  !- <none>
    0.9618,                  !- <none>
    0.9618,                  !- <none>
    0.9593,                  !- <none>
    0.9589,                  !- <none>
    0.9607,                  !- <none>
    0.9625,                  !- <none>
    0.9650,                  !- <none>
    0.9708,                  !- <none>
    0.9751,                  !- <none>
    0.9762,                  !- <none>
    0.9766,                  !- <none>
    0.9766,                  !- <none>
    0.9769,                  !- <none>
    0.9773;                  !- <none>

  LifeCycleCost:UsePriceEscalation,
    U.S. Avg  Commercial-Distillate Oil,  !- LCC Price Escalation Name
    FuelOilNo1,              !- Resource
    2011,                    !- Escalation Start Year
    January,                 !- Escalation Start Month
    0.9714,                  !- Year 1 Escalation
    0.9730,                  !- Year 2 Escalation
    0.9942,                  !- Year 3 Escalation
    1.0164,                  !- Year 4 Escalation
    1.0541,                  !- Year 5 Escalation
    1.0928,                  !- Year 6 Escalation
    1.1267,                  !- Year 7 Escalation
    1.1580,                  !- Year 8 Escalation
    1.1792,                  !- Year 9 Escalation
    1.1967,                  !- <none>
    1.2200,                  !- <none>
    1.2333,                  !- <none>
    1.2566,                  !- <none>
    1.2709,                  !- <none>
    1.2826,                  !- <none>
    1.2985,                  !- <none>
    1.3102,                  !- <none>
    1.3250,                  !- <none>
    1.3261,                  !- <none>
    1.3282,                  !- <none>
    1.3324,                  !- <none>
    1.3356,                  !- <none>
    1.3431,                  !- <none>
    1.3510,                  !- <none>
    1.3568,                  !- <none>
    1.3606,                  !- <none>
    1.3637,                  !- <none>
    1.3674,                  !- <none>
    1.3706,                  !- <none>
    1.3743;                  !- <none>

  LifeCycleCost:UsePriceEscalation,
    U.S. Avg  Commercial-Residual Oil,  !- LCC Price Escalation Name
    FuelOilNo2,              !- Resource
    2011,                    !- Escalation Start Year
    January,                 !- Escalation Start Month
    0.8469,                  !- Year 1 Escalation
    0.8257,                  !- Year 2 Escalation
    0.8681,                  !- Year 3 Escalation
    0.8988,                  !- Year 4 Escalation
    0.9289,                  !- Year 5 Escalation
    0.9604,                  !- Year 6 Escalation
    0.9897,                  !- Year 7 Escalation
    1.0075,                  !- Year 8 Escalation
    1.0314,                  !- Year 9 Escalation
    1.0554,                  !- <none>
    1.0861,                  !- <none>
    1.1278,                  !- <none>
    1.1497,                  !- <none>
    1.1620,                  !- <none>
    1.1743,                  !- <none>
    1.1852,                  !- <none>
    1.1948,                  !- <none>
    1.2037,                  !- <none>
    1.2071,                  !- <none>
    1.2119,                  !- <none>
    1.2139,                  !- <none>
    1.2194,                  !- <none>
    1.2276,                  !- <none>
    1.2365,                  !- <none>
    1.2420,                  !- <none>
    1.2461,                  !- <none>
    1.2509,                  !- <none>
    1.2550,                  !- <none>
    1.2591,                  !- <none>
    1.2638;                  !- <none>

  LifeCycleCost:UsePriceEscalation,
    U.S. Avg  Commercial-Natural gas,  !- LCC Price Escalation Name
    NaturalGas,              !- Resource
    2011,                    !- Escalation Start Year
    January,                 !- Escalation Start Month
    0.9823,                  !- Year 1 Escalation
    0.9557,                  !- Year 2 Escalation
    0.9279,                  !- Year 3 Escalation
    0.9257,                  !- Year 4 Escalation
    0.9346,                  !- Year 5 Escalation
    0.9412,                  !- Year 6 Escalation
    0.9512,                  !- Year 7 Escalation
    0.9645,                  !- Year 8 Escalation
    0.9856,                  !- Year 9 Escalation
    1.0067,                  !- <none>
    1.0222,                  !- <none>
    1.0410,                  !- <none>
    1.0610,                  !- <none>
    1.0787,                  !- <none>
    1.0942,                  !- <none>
    1.1098,                  !- <none>
    1.1220,                  !- <none>
    1.1308,                  !- <none>
    1.1386,                  !- <none>
    1.1486,                  !- <none>
    1.1619,                  !- <none>
    1.1763,                  !- <none>
    1.1918,                  !- <none>
    1.2118,                  !- <none>
    1.2284,                  !- <none>
    1.2439,                  !- <none>
    1.2605,                  !- <none>
    1.2772,                  !- <none>
    1.2938,                  !- <none>
    1.3115;                  !- <none>

  LifeCycleCost:UsePriceEscalation,
    U.S. Avg  Commercial-Coal,  !- LCC Price Escalation Name
    Coal,                    !- Resource
    2011,                    !- Escalation Start Year
    January,                 !- Escalation Start Month
    0.9970,                  !- Year 1 Escalation
    1.0089,                  !- Year 2 Escalation
    1.0089,                  !- Year 3 Escalation
    0.9941,                  !- Year 4 Escalation
    0.9941,                  !- Year 5 Escalation
    1.0000,                  !- Year 6 Escalation
    1.0030,                  !- Year 7 Escalation
    1.0059,                  !- Year 8 Escalation
    1.0089,                  !- Year 9 Escalation
    1.0119,                  !- <none>
    1.0148,                  !- <none>
    1.0178,                  !- <none>
    1.0208,                  !- <none>
    1.0267,                  !- <none>
    1.0297,                  !- <none>
    1.0356,                  !- <none>
    1.0415,                  !- <none>
    1.0534,                  !- <none>
    1.0564,                  !- <none>
    1.0593,                  !- <none>
    1.0653,                  !- <none>
    1.0712,                  !- <none>
    1.0742,                  !- <none>
    1.0801,                  !- <none>
    1.0831,                  !- <none>
    1.0831,                  !- <none>
    1.0861,                  !- <none>
    1.0890,                  !- <none>
    1.0920,                  !- <none>
    1.0950;                  !- <none>

  Building,
    bld_16,                  !- Name
    ,                        !- North Axis {deg}
    City,                    !- Terrain
    ,                        !- Loads Convergence Tolerance Value {W}
    ,                        !- Temperature Convergence Tolerance Value {deltaC}
    ,                        !- Solar Distribution
    ,                        !- Maximum Number of Warmup Days
    ;                        !- Minimum Number of Warmup Days

  Shading:Building:Detailed,
    Shading Surface 13,      !- Name
    ,                        !- Transmittance Schedule Name
    ,                        !- Number of Vertices
    -170.487769506526,129.275770657236,0,  !- X,Y,Z ==> Vertex 1 {m}
    -170.90663284295,121.612643854714,0,  !- X,Y,Z ==> Vertex 2 {m}
    -151.898424353998,120.390562260096,0,  !- X,Y,Z ==> Vertex 3 {m}
    -152.819836624137,105.730668288345,0,  !- X,Y,Z ==> Vertex 4 {m}
    -206.997513914236,109.063807878067,0,  !- X,Y,Z ==> Vertex 5 {m}
    -205.992237204006,124.390052388743,0,  !- X,Y,Z ==> Vertex 6 {m}
    -190.166030508256,123.39008149056,0,  !- X,Y,Z ==> Vertex 7 {m}
    -189.747161463272,130.49790744257,0;  !- X,Y,Z ==> Vertex 8 {m}

  Shading:Building:Detailed,
    Shading Surface 14,      !- Name
    ,                        !- Transmittance Schedule Name
    ,                        !- Number of Vertices
    -206.997513914236,109.063807878067,12,  !- X,Y,Z ==> Vertex 1 {m}
    -206.997513914236,109.063807878067,0,  !- X,Y,Z ==> Vertex 2 {m}
    -152.819836624137,105.730668288345,0,  !- X,Y,Z ==> Vertex 3 {m}
    -152.819836624137,105.730668288345,12;  !- X,Y,Z ==> Vertex 4 {m}

  Shading:Building:Detailed,
    Shading Surface 15,      !- Name
    ,                        !- Transmittance Schedule Name
    ,                        !- Number of Vertices
    -189.747161463272,130.49790744257,12,  !- X,Y,Z ==> Vertex 1 {m}
    -189.747161463272,130.49790744257,0,  !- X,Y,Z ==> Vertex 2 {m}
    -190.166030508256,123.39008149056,0,  !- X,Y,Z ==> Vertex 3 {m}
    -190.166030508256,123.39008149056,12;  !- X,Y,Z ==> Vertex 4 {m}

  Shading:Building:Detailed,
    Shading Surface 16,      !- Name
    ,                        !- Transmittance Schedule Name
    ,                        !- Number of Vertices
    -170.90663284295,121.612643854714,12,  !- X,Y,Z ==> Vertex 1 {m}
    -170.90663284295,121.612643854714,0,  !- X,Y,Z ==> Vertex 2 {m}
    -170.487769506526,129.275770657236,0,  !- X,Y,Z ==> Vertex 3 {m}
    -170.487769506526,129.275770657236,12;  !- X,Y,Z ==> Vertex 4 {m}

  Shading:Building:Detailed,
    Shading Surface 17,      !- Name
    ,                        !- Transmittance Schedule Name
    ,                        !- Number of Vertices
    -170.487769506526,129.275770657236,12,  !- X,Y,Z ==> Vertex 1 {m}
    -170.487769506526,129.275770657236,0,  !- X,Y,Z ==> Vertex 2 {m}
    -189.747161463272,130.49790744257,0,  !- X,Y,Z ==> Vertex 3 {m}
    -189.747161463272,130.49790744257,12;  !- X,Y,Z ==> Vertex 4 {m}

  Shading:Building:Detailed,
    Shading Surface 18,      !- Name
    ,                        !- Transmittance Schedule Name
    ,                        !- Number of Vertices
    -205.992237204006,124.390052388743,12,  !- X,Y,Z ==> Vertex 1 {m}
    -205.992237204006,124.390052388743,0,  !- X,Y,Z ==> Vertex 2 {m}
    -206.997513914236,109.063807878067,0,  !- X,Y,Z ==> Vertex 3 {m}
    -206.997513914236,109.063807878067,12;  !- X,Y,Z ==> Vertex 4 {m}

  Shading:Building:Detailed,
    Shading Surface 19,      !- Name
    ,                        !- Transmittance Schedule Name
    ,                        !- Number of Vertices
    -152.819836624137,105.730668288345,12,  !- X,Y,Z ==> Vertex 1 {m}
    -152.819836624137,105.730668288345,0,  !- X,Y,Z ==> Vertex 2 {m}
    -151.898424353998,120.390562260096,0,  !- X,Y,Z ==> Vertex 3 {m}
    -151.898424353998,120.390562260096,12;  !- X,Y,Z ==> Vertex 4 {m}

  Shading:Building:Detailed,
    Shading Surface 20,      !- Name
    ,                        !- Transmittance Schedule Name
    ,                        !- Number of Vertices
    -190.166030508256,123.39008149056,12,  !- X,Y,Z ==> Vertex 1 {m}
    -190.166030508256,123.39008149056,0,  !- X,Y,Z ==> Vertex 2 {m}
    -205.992237204006,124.390052388743,0,  !- X,Y,Z ==> Vertex 3 {m}
    -205.992237204006,124.390052388743,12;  !- X,Y,Z ==> Vertex 4 {m}

  Shading:Building:Detailed,
    Shading Surface 21,      !- Name
    ,                        !- Transmittance Schedule Name
    ,                        !- Number of Vertices
    -151.898424353998,120.390562260096,12,  !- X,Y,Z ==> Vertex 1 {m}
    -151.898424353998,120.390562260096,0,  !- X,Y,Z ==> Vertex 2 {m}
    -170.90663284295,121.612643854714,0,  !- X,Y,Z ==> Vertex 3 {m}
    -170.90663284295,121.612643854714,12;  !- X,Y,Z ==> Vertex 4 {m}

  Shading:Building:Detailed,
    Shading Surface 22,      !- Name
    ,                        !- Transmittance Schedule Name
    ,                        !- Number of Vertices
    -189.747161463272,130.49790744257,12,  !- X,Y,Z ==> Vertex 1 {m}
    -190.166030508256,123.39008149056,12,  !- X,Y,Z ==> Vertex 2 {m}
    -205.992237204006,124.390052388743,12,  !- X,Y,Z ==> Vertex 3 {m}
    -206.997513914236,109.063807878067,12,  !- X,Y,Z ==> Vertex 4 {m}
    -152.819836624137,105.730668288345,12,  !- X,Y,Z ==> Vertex 5 {m}
    -151.898424353998,120.390562260096,12,  !- X,Y,Z ==> Vertex 6 {m}
    -170.90663284295,121.612643854714,12,  !- X,Y,Z ==> Vertex 7 {m}
    -170.487769506526,129.275770657236,12;  !- X,Y,Z ==> Vertex 8 {m}

  Shading:Building:Detailed,
    Shading Surface 23,      !- Name
    ,                        !- Transmittance Schedule Name
    ,                        !- Number of Vertices
    -107.519309170643,29.0984974959999,12,  !- X,Y,Z ==> Vertex 1 {m}
    -107.519309170643,29.0984974959999,0,  !- X,Y,Z ==> Vertex 2 {m}
    -105.844228470871,51.4215201390022,0,  !- X,Y,Z ==> Vertex 3 {m}
    -105.844228470871,51.4215201390022,12;  !- X,Y,Z ==> Vertex 4 {m}

  Shading:Building:Detailed,
    Shading Surface 24,      !- Name
    ,                        !- Transmittance Schedule Name
    ,                        !- Number of Vertices
    -94.6230519752156,78.1868111006815,0,  !- X,Y,Z ==> Vertex 1 {m}
    -94.5392945343917,79.7416492150191,0,  !- X,Y,Z ==> Vertex 2 {m}
    -85.160737669317,78.9641136661232,0,  !- X,Y,Z ==> Vertex 3 {m}
    -85.4119910510141,75.4101984430231,0,  !- X,Y,Z ==> Vertex 4 {m}
    -61.7143645448968,73.744059441279,0,  !- X,Y,Z ==> Vertex 5 {m}
    -61.4631226923806,77.2979754751949,0,  !- X,Y,Z ==> Vertex 6 {m}
    -50.4935524725007,76.409411441858,0,  !- X,Y,Z ==> Vertex 7 {m}
    -54.5133387569236,23.2117301186766,0,  !- X,Y,Z ==> Vertex 8 {m}
    -66.5715806652896,24.1003100362306,0,  !- X,Y,Z ==> Vertex 9 {m}
    -63.8079083107507,60.9721842845833,0,  !- X,Y,Z ==> Vertex 10 {m}
    -86.1657776910663,62.6383140704599,0,  !- X,Y,Z ==> Vertex 11 {m}
    -86.417028166813,59.4175787908097,0,  !- X,Y,Z ==> Vertex 12 {m}
    -97.5540959731423,60.195139328508,0,  !- X,Y,Z ==> Vertex 13 {m}
    -98.2241214275696,50.8661134669685,0,  !- X,Y,Z ==> Vertex 14 {m}
    -105.844228470871,51.4215201390022,0,  !- X,Y,Z ==> Vertex 15 {m}
    -107.519309170643,29.0984974959999,0,  !- X,Y,Z ==> Vertex 16 {m}
    -132.724346383089,30.9869329743648,0,  !- X,Y,Z ==> Vertex 17 {m}
    -131.467972638185,47.9790804002842,0,  !- X,Y,Z ==> Vertex 18 {m}
    -125.438875828782,47.5347340884758,0,  !- X,Y,Z ==> Vertex 19 {m}
    -124.350029022335,62.6388670884844,0,  !- X,Y,Z ==> Vertex 20 {m}
    -126.778409551778,62.861028924004,0,  !- X,Y,Z ==> Vertex 21 {m}
    -125.438308433775,80.4084764971003,0;  !- X,Y,Z ==> Vertex 22 {m}

  Shading:Building:Detailed,
    Shading Surface 25,      !- Name
    ,                        !- Transmittance Schedule Name
    ,                        !- Number of Vertices
    -54.5133387569236,23.2117301186766,12,  !- X,Y,Z ==> Vertex 1 {m}
    -54.5133387569236,23.2117301186766,0,  !- X,Y,Z ==> Vertex 2 {m}
    -50.4935524725007,76.409411441858,0,  !- X,Y,Z ==> Vertex 3 {m}
    -50.4935524725007,76.409411441858,12;  !- X,Y,Z ==> Vertex 4 {m}

  Shading:Building:Detailed,
    Shading Surface 26,      !- Name
    ,                        !- Transmittance Schedule Name
    ,                        !- Number of Vertices
    -86.417028166813,59.4175787908097,12,  !- X,Y,Z ==> Vertex 1 {m}
    -86.417028166813,59.4175787908097,0,  !- X,Y,Z ==> Vertex 2 {m}
    -86.1657776910663,62.6383140704599,0,  !- X,Y,Z ==> Vertex 3 {m}
    -86.1657776910663,62.6383140704599,12;  !- X,Y,Z ==> Vertex 4 {m}

  Shading:Building:Detailed,
    Shading Surface 27,      !- Name
    ,                        !- Transmittance Schedule Name
    ,                        !- Number of Vertices
    -126.778409551778,62.861028924004,12,  !- X,Y,Z ==> Vertex 1 {m}
    -126.778409551778,62.861028924004,0,  !- X,Y,Z ==> Vertex 2 {m}
    -124.350029022335,62.6388670884844,0,  !- X,Y,Z ==> Vertex 3 {m}
    -124.350029022335,62.6388670884844,12;  !- X,Y,Z ==> Vertex 4 {m}

  Shading:Building:Detailed,
    Shading Surface 28,      !- Name
    ,                        !- Transmittance Schedule Name
    ,                        !- Number of Vertices
    -125.438308433775,80.4084764971003,12,  !- X,Y,Z ==> Vertex 1 {m}
    -125.438308433775,80.4084764971003,0,  !- X,Y,Z ==> Vertex 2 {m}
    -126.778409551778,62.861028924004,0,  !- X,Y,Z ==> Vertex 3 {m}
    -126.778409551778,62.861028924004,12;  !- X,Y,Z ==> Vertex 4 {m}

  Shading:Building:Detailed,
    Shading Surface 29,      !- Name
    ,                        !- Transmittance Schedule Name
    ,                        !- Number of Vertices
    -94.6230519752156,78.1868111006815,12,  !- X,Y,Z ==> Vertex 1 {m}
    -94.6230519752156,78.1868111006815,0,  !- X,Y,Z ==> Vertex 2 {m}
    -125.438308433775,80.4084764971003,0,  !- X,Y,Z ==> Vertex 3 {m}
    -125.438308433775,80.4084764971003,12;  !- X,Y,Z ==> Vertex 4 {m}

  Shading:Building:Detailed,
    Shading Surface 30,      !- Name
    ,                        !- Transmittance Schedule Name
    ,                        !- Number of Vertices
    -125.438308433775,80.4084764971003,12,  !- X,Y,Z ==> Vertex 1 {m}
    -126.778409551778,62.861028924004,12,  !- X,Y,Z ==> Vertex 2 {m}
    -124.350029022335,62.6388670884844,12,  !- X,Y,Z ==> Vertex 3 {m}
    -125.438875828782,47.5347340884758,12,  !- X,Y,Z ==> Vertex 4 {m}
    -131.467972638185,47.9790804002842,12,  !- X,Y,Z ==> Vertex 5 {m}
    -132.724346383089,30.9869329743648,12,  !- X,Y,Z ==> Vertex 6 {m}
    -107.519309170643,29.0984974959999,12,  !- X,Y,Z ==> Vertex 7 {m}
    -105.844228470871,51.4215201390022,12,  !- X,Y,Z ==> Vertex 8 {m}
    -98.2241214275696,50.8661134669685,12,  !- X,Y,Z ==> Vertex 9 {m}
    -97.5540959731423,60.195139328508,12,  !- X,Y,Z ==> Vertex 10 {m}
    -86.417028166813,59.4175787908097,12,  !- X,Y,Z ==> Vertex 11 {m}
    -86.1657776910663,62.6383140704599,12,  !- X,Y,Z ==> Vertex 12 {m}
    -63.8079083107507,60.9721842845833,12,  !- X,Y,Z ==> Vertex 13 {m}
    -66.5715806652896,24.1003100362306,12,  !- X,Y,Z ==> Vertex 14 {m}
    -54.5133387569236,23.2117301186766,12,  !- X,Y,Z ==> Vertex 15 {m}
    -50.4935524725007,76.409411441858,12,  !- X,Y,Z ==> Vertex 16 {m}
    -61.4631226923806,77.2979754751949,12,  !- X,Y,Z ==> Vertex 17 {m}
    -61.7143645448968,73.744059441279,12,  !- X,Y,Z ==> Vertex 18 {m}
    -85.4119910510141,75.4101984430231,12,  !- X,Y,Z ==> Vertex 19 {m}
    -85.160737669317,78.9641136661232,12,  !- X,Y,Z ==> Vertex 20 {m}
    -94.5392945343917,79.7416492150191,12,  !- X,Y,Z ==> Vertex 21 {m}
    -94.6230519752156,78.1868111006815,12;  !- X,Y,Z ==> Vertex 22 {m}

  Shading:Building:Detailed,
    Shading Surface 31,      !- Name
    ,                        !- Transmittance Schedule Name
    ,                        !- Number of Vertices
    -105.844228470871,51.4215201390022,12,  !- X,Y,Z ==> Vertex 1 {m}
    -105.844228470871,51.4215201390022,0,  !- X,Y,Z ==> Vertex 2 {m}
    -98.2241214275696,50.8661134669685,0,  !- X,Y,Z ==> Vertex 3 {m}
    -98.2241214275696,50.8661134669685,12;  !- X,Y,Z ==> Vertex 4 {m}

  Shading:Building:Detailed,
    Shading Surface 32,      !- Name
    ,                        !- Transmittance Schedule Name
    ,                        !- Number of Vertices
    -85.4119910510141,75.4101984430231,12,  !- X,Y,Z ==> Vertex 1 {m}
    -85.4119910510141,75.4101984430231,0,  !- X,Y,Z ==> Vertex 2 {m}
    -85.160737669317,78.9641136661232,0,  !- X,Y,Z ==> Vertex 3 {m}
    -85.160737669317,78.9641136661232,12;  !- X,Y,Z ==> Vertex 4 {m}

  Shading:Building:Detailed,
    Shading Surface 33,      !- Name
    ,                        !- Transmittance Schedule Name
    ,                        !- Number of Vertices
    -61.4631226923806,77.2979754751949,12,  !- X,Y,Z ==> Vertex 1 {m}
    -61.4631226923806,77.2979754751949,0,  !- X,Y,Z ==> Vertex 2 {m}
    -61.7143645448968,73.744059441279,0,  !- X,Y,Z ==> Vertex 3 {m}
    -61.7143645448968,73.744059441279,12;  !- X,Y,Z ==> Vertex 4 {m}

  Shading:Building:Detailed,
    Shading Surface 34,      !- Name
    ,                        !- Transmittance Schedule Name
    ,                        !- Number of Vertices
    -61.7143645448968,73.744059441279,12,  !- X,Y,Z ==> Vertex 1 {m}
    -61.7143645448968,73.744059441279,0,  !- X,Y,Z ==> Vertex 2 {m}
    -85.4119910510141,75.4101984430231,0,  !- X,Y,Z ==> Vertex 3 {m}
    -85.4119910510141,75.4101984430231,12;  !- X,Y,Z ==> Vertex 4 {m}

  Shading:Building:Detailed,
    Shading Surface 35,      !- Name
    ,                        !- Transmittance Schedule Name
    ,                        !- Number of Vertices
    -66.5715806652896,24.1003100362306,12,  !- X,Y,Z ==> Vertex 1 {m}
    -66.5715806652896,24.1003100362306,0,  !- X,Y,Z ==> Vertex 2 {m}
    -54.5133387569236,23.2117301186766,0,  !- X,Y,Z ==> Vertex 3 {m}
    -54.5133387569236,23.2117301186766,12;  !- X,Y,Z ==> Vertex 4 {m}

  Shading:Building:Detailed,
    Shading Surface 36,      !- Name
    ,                        !- Transmittance Schedule Name
    ,                        !- Number of Vertices
    -85.160737669317,78.9641136661232,12,  !- X,Y,Z ==> Vertex 1 {m}
    -85.160737669317,78.9641136661232,0,  !- X,Y,Z ==> Vertex 2 {m}
    -94.5392945343917,79.7416492150191,0,  !- X,Y,Z ==> Vertex 3 {m}
    -94.5392945343917,79.7416492150191,12;  !- X,Y,Z ==> Vertex 4 {m}

  Shading:Building:Detailed,
    Shading Surface 37,      !- Name
    ,                        !- Transmittance Schedule Name
    ,                        !- Number of Vertices
    -50.4935524725007,76.409411441858,12,  !- X,Y,Z ==> Vertex 1 {m}
    -50.4935524725007,76.409411441858,0,  !- X,Y,Z ==> Vertex 2 {m}
    -61.4631226923806,77.2979754751949,0,  !- X,Y,Z ==> Vertex 3 {m}
    -61.4631226923806,77.2979754751949,12;  !- X,Y,Z ==> Vertex 4 {m}

  Shading:Building:Detailed,
    Shading Surface 38,      !- Name
    ,                        !- Transmittance Schedule Name
    ,                        !- Number of Vertices
    -97.5540959731423,60.195139328508,12,  !- X,Y,Z ==> Vertex 1 {m}
    -97.5540959731423,60.195139328508,0,  !- X,Y,Z ==> Vertex 2 {m}
    -86.417028166813,59.4175787908097,0,  !- X,Y,Z ==> Vertex 3 {m}
    -86.417028166813,59.4175787908097,12;  !- X,Y,Z ==> Vertex 4 {m}

  Shading:Building:Detailed,
    Shading Surface 39,      !- Name
    ,                        !- Transmittance Schedule Name
    ,                        !- Number of Vertices
    -63.8079083107507,60.9721842845833,12,  !- X,Y,Z ==> Vertex 1 {m}
    -63.8079083107507,60.9721842845833,0,  !- X,Y,Z ==> Vertex 2 {m}
    -66.5715806652896,24.1003100362306,0,  !- X,Y,Z ==> Vertex 3 {m}
    -66.5715806652896,24.1003100362306,12;  !- X,Y,Z ==> Vertex 4 {m}

  Shading:Building:Detailed,
    Shading Surface 40,      !- Name
    ,                        !- Transmittance Schedule Name
    ,                        !- Number of Vertices
    -98.2241214275696,50.8661134669685,12,  !- X,Y,Z ==> Vertex 1 {m}
    -98.2241214275696,50.8661134669685,0,  !- X,Y,Z ==> Vertex 2 {m}
    -97.5540959731423,60.195139328508,0,  !- X,Y,Z ==> Vertex 3 {m}
    -97.5540959731423,60.195139328508,12;  !- X,Y,Z ==> Vertex 4 {m}

  Shading:Building:Detailed,
    Shading Surface 41,      !- Name
    ,                        !- Transmittance Schedule Name
    ,                        !- Number of Vertices
    -132.724346383089,30.9869329743648,12,  !- X,Y,Z ==> Vertex 1 {m}
    -132.724346383089,30.9869329743648,0,  !- X,Y,Z ==> Vertex 2 {m}
    -107.519309170643,29.0984974959999,0,  !- X,Y,Z ==> Vertex 3 {m}
    -107.519309170643,29.0984974959999,12;  !- X,Y,Z ==> Vertex 4 {m}

  Shading:Building:Detailed,
    Shading Surface 42,      !- Name
    ,                        !- Transmittance Schedule Name
    ,                        !- Number of Vertices
    -131.467972638185,47.9790804002842,12,  !- X,Y,Z ==> Vertex 1 {m}
    -131.467972638185,47.9790804002842,0,  !- X,Y,Z ==> Vertex 2 {m}
    -132.724346383089,30.9869329743648,0,  !- X,Y,Z ==> Vertex 3 {m}
    -132.724346383089,30.9869329743648,12;  !- X,Y,Z ==> Vertex 4 {m}

  Shading:Building:Detailed,
    Shading Surface 43,      !- Name
    ,                        !- Transmittance Schedule Name
    ,                        !- Number of Vertices
    -94.5392945343917,79.7416492150191,12,  !- X,Y,Z ==> Vertex 1 {m}
    -94.5392945343917,79.7416492150191,0,  !- X,Y,Z ==> Vertex 2 {m}
    -94.6230519752156,78.1868111006815,0,  !- X,Y,Z ==> Vertex 3 {m}
    -94.6230519752156,78.1868111006815,12;  !- X,Y,Z ==> Vertex 4 {m}

  Shading:Building:Detailed,
    Shading Surface 44,      !- Name
    ,                        !- Transmittance Schedule Name
    ,                        !- Number of Vertices
    -125.438875828782,47.5347340884758,12,  !- X,Y,Z ==> Vertex 1 {m}
    -125.438875828782,47.5347340884758,0,  !- X,Y,Z ==> Vertex 2 {m}
    -131.467972638185,47.9790804002842,0,  !- X,Y,Z ==> Vertex 3 {m}
    -131.467972638185,47.9790804002842,12;  !- X,Y,Z ==> Vertex 4 {m}

  Shading:Building:Detailed,
    Shading Surface 45,      !- Name
    ,                        !- Transmittance Schedule Name
    ,                        !- Number of Vertices
    -124.350029022335,62.6388670884844,12,  !- X,Y,Z ==> Vertex 1 {m}
    -124.350029022335,62.6388670884844,0,  !- X,Y,Z ==> Vertex 2 {m}
    -125.438875828782,47.5347340884758,0,  !- X,Y,Z ==> Vertex 3 {m}
    -125.438875828782,47.5347340884758,12;  !- X,Y,Z ==> Vertex 4 {m}

  Shading:Building:Detailed,
    Shading Surface 46,      !- Name
    ,                        !- Transmittance Schedule Name
    ,                        !- Number of Vertices
    -86.1657776910663,62.6383140704599,12,  !- X,Y,Z ==> Vertex 1 {m}
    -86.1657776910663,62.6383140704599,0,  !- X,Y,Z ==> Vertex 2 {m}
    -63.8079083107507,60.9721842845833,0,  !- X,Y,Z ==> Vertex 3 {m}
    -63.8079083107507,60.9721842845833,12;  !- X,Y,Z ==> Vertex 4 {m}

  Shading:Building:Detailed,
    Shading Surface 47,      !- Name
    ,                        !- Transmittance Schedule Name
    ,                        !- Number of Vertices
    -219.892607018978,121.725020846123,12,  !- X,Y,Z ==> Vertex 1 {m}
    -219.892607018978,121.725020846123,0,  !- X,Y,Z ==> Vertex 2 {m}
    -256.736674172504,124.16954791988,0,  !- X,Y,Z ==> Vertex 3 {m}
    -256.736674172504,124.16954791988,12;  !- X,Y,Z ==> Vertex 4 {m}

  Shading:Building:Detailed,
    Shading Surface 48,      !- Name
    ,                        !- Transmittance Schedule Name
    ,                        !- Number of Vertices
    -220.897896534153,106.954078061535,12,  !- X,Y,Z ==> Vertex 1 {m}
    -220.897896534153,106.954078061535,0,  !- X,Y,Z ==> Vertex 2 {m}
    -219.892607018978,121.725020846123,0,  !- X,Y,Z ==> Vertex 3 {m}
    -219.892607018978,121.725020846123,12;  !- X,Y,Z ==> Vertex 4 {m}

  Shading:Building:Detailed,
    Shading Surface 49,      !- Name
    ,                        !- Transmittance Schedule Name
    ,                        !- Number of Vertices
    -257.658305315702,109.287547256967,12,  !- X,Y,Z ==> Vertex 1 {m}
    -257.658305315702,109.287547256967,0,  !- X,Y,Z ==> Vertex 2 {m}
    -220.897896534153,106.954078061535,0,  !- X,Y,Z ==> Vertex 3 {m}
    -220.897896534153,106.954078061535,12;  !- X,Y,Z ==> Vertex 4 {m}

  Shading:Building:Detailed,
    Shading Surface 50,      !- Name
    ,                        !- Transmittance Schedule Name
    ,                        !- Number of Vertices
    -256.736674172504,124.16954791988,12,  !- X,Y,Z ==> Vertex 1 {m}
    -256.736674172504,124.16954791988,0,  !- X,Y,Z ==> Vertex 2 {m}
    -257.658305315702,109.287547256967,0,  !- X,Y,Z ==> Vertex 3 {m}
    -257.658305315702,109.287547256967,12;  !- X,Y,Z ==> Vertex 4 {m}

  Shading:Building:Detailed,
    Shading Surface 51,      !- Name
    ,                        !- Transmittance Schedule Name
    ,                        !- Number of Vertices
    -219.892607018978,121.725020846123,0,  !- X,Y,Z ==> Vertex 1 {m}
    -220.897896534153,106.954078061535,0,  !- X,Y,Z ==> Vertex 2 {m}
    -257.658305315702,109.287547256967,0,  !- X,Y,Z ==> Vertex 3 {m}
    -256.736674172504,124.16954791988,0;  !- X,Y,Z ==> Vertex 4 {m}

  Shading:Building:Detailed,
    Shading Surface 52,      !- Name
    ,                        !- Transmittance Schedule Name
    ,                        !- Number of Vertices
    -256.736674172504,124.16954791988,12,  !- X,Y,Z ==> Vertex 1 {m}