  ConvergenceLimits,
    0,                       !- Minimum System Timestep {minutes}
    25;                      !- Maximum HVAC Iterations

  Version,23.1;

  Timestep,1;

  LifeCycleCost:Parameters,
    Life Cycle Cost Parameters,  !- Name
    EndOfYear,               !- Discounting Convention
    ConstantDollar,          !- Inflation Approach
    0.03,                    !- Real Discount Rate
    ,                        !- Nominal Discount Rate
    ,                        !- Inflation
    ,                        !- Base Date Month
    2011,                    !- Base Date Year
    ,                        !- Service Date Month
    2011,                    !- Service Date Year
    25,                      !- Length of Study Period in Years
    ,                        !- Tax rate
    None;                    !- Depreciation Method

  LifeCycleCost:UsePriceEscalation,
    U.S. Avg  Commercial-Electricity,  !- LCC Price Escalation Name
    Electricity,             !- Resource
    2011,                    !- Escalation Start Year
    January,                 !- Escalation Start Month
    0.9838,                  !- Year 1 Escalation
    0.9730,                  !- Year 2 Escalation
    0.9632,                  !- Year 3 Escalation
    0.9611,                  !- Year 4 Escalation
    0.9571,                  !- Year 5 Escalation
    0.9553,                  !- Year 6 Escalation
    0.9539,                  !- Year 7 Escalation
    0.9521,                  !- Year 8 Escalation
    0.9546,                  !- Year 9 Escalation
    0.9550,                  !- <none>
    0.9553,                  !- <none>
    0.9564,                  !- <none>
    0.9575,                  !- <none>
    0.9596,                  !- <none>
    0.9618,                  !- <none>
    0.9614,                  !- <none>
    0.9618,                  !- <none>
    0.9618,                  !- <none>
    0.9593,                  !- <none>
    0.9589,                  !- <none>
    0.9607,                  !- <none>
    0.9625,                  !- <none>
    0.9650,                  !- <none>
    0.9708,                  !- <none>
    0.9751,                  !- <none>
    0.9762,                  !- <none>
    0.9766,                  !- <none>
    0.9766,                  !- <none>
    0.9769,                  !- <none>
    0.9773;                  !- <none>

  LifeCycleCost:UsePriceEscalation,
    U.S. Avg  Commercial-Distillate Oil,  !- LCC Price Escalation Name
    FuelOilNo1,              !- Resource
    2011,                    !- Escalation Start Year
    January,                 !- Escalation Start Month
    0.9714,                  !- Year 1 Escalation
    0.9730,                  !- Year 2 Escalation
    0.9942,                  !- Year 3 Escalation
    1.0164,                  !- Year 4 Escalation
    1.0541,                  !- Year 5 Escalation
    1.0928,                  !- Year 6 Escalation
    1.1267,                  !- Year 7 Escalation
    1.1580,                  !- Year 8 Escalation
    1.1792,                  !- Year 9 Escalation
    1.1967,                  !- <none>
    1.2200,                  !- <none>
    1.2333,                  !- <none>
    1.2566,                  !- <none>
    1.2709,                  !- <none>
    1.2826,                  !- <none>
    1.2985,                  !- <none>
    1.3102,                  !- <none>
    1.3250,                  !- <none>
    1.3261,                  !- <none>
    1.3282,                  !- <none>
    1.3324,                  !- <none>
    1.3356,                  !- <none>
    1.3431,                  !- <none>
    1.3510,                  !- <none>
    1.3568,                  !- <none>
    1.3606,                  !- <none>
    1.3637,                  !- <none>
    1.3674,                  !- <none>
    1.3706,                  !- <none>
    1.3743;                  !- <none>

  LifeCycleCost:UsePriceEscalation,
    U.S. Avg  Commercial-Residual Oil,  !- LCC Price Escalation Name
    FuelOilNo2,              !- Resource
    2011,                    !- Escalation Start Year
    January,                 !- Escalation Start Month
    0.8469,                  !- Year 1 Escalation
    0.8257,                  !- Year 2 Escalation
    0.8681,                  !- Year 3 Escalation
    0.8988,                  !- Year 4 Escalation
    0.9289,                  !- Year 5 Escalation
    0.9604,                  !- Year 6 Escalation
    0.9897,                  !- Year 7 Escalation
    1.0075,                  !- Year 8 Escalation
    1.0314,                  !- Year 9 Escalation
    1.0554,                  !- <none>
    1.0861,                  !- <none>
    1.1278,                  !- <none>
    1.1497,                  !- <none>
    1.1620,                  !- <none>
    1.1743,                  !- <none>
    1.1852,                  !- <none>
    1.1948,                  !- <none>
    1.2037,                  !- <none>
    1.2071,                  !- <none>
    1.2119,                  !- <none>
    1.2139,                  !- <none>
    1.2194,                  !- <none>
    1.2276,                  !- <none>
    1.2365,                  !- <none>
    1.2420,                  !- <none>
    1.2461,                  !- <none>
    1.2509,                  !- <none>
    1.2550,                  !- <none>
    1.2591,                  !- <none>
    1.2638;                  !- <none>

  LifeCycleCost:UsePriceEscalation,
    U.S. Avg  Commercial-Natural gas,  !- LCC Price Escalation Name
    NaturalGas,              !- Resource
    2011,                    !- Escalation Start Year
    January,                 !- Escalation Start Month
    0.9823,                  !- Year 1 Escalation
    0.9557,                  !- Year 2 Escalation
    0.9279,                  !- Year 3 Escalation
    0.9257,                  !- Year 4 Escalation
    0.9346,                  !- Year 5 Escalation
    0.9412,                  !- Year 6 Escalation
    0.9512,                  !- Year 7 Escalation
    0.9645,                  !- Year 8 Escalation
    0.9856,                  !- Year 9 Escalation
    1.0067,                  !- <none>
    1.0222,                  !- <none>
    1.0410,                  !- <none>
    1.0610,                  !- <none>
    1.0787,                  !- <none>
    1.0942,                  !- <none>
    1.1098,                  !- <none>
    1.1220,                  !- <none>
    1.1308,                  !- <none>
    1.1386,                  !- <none>
    1.1486,                  !- <none>
    1.1619,                  !- <none>
    1.1763,                  !- <none>
    1.1918,                  !- <none>
    1.2118,                  !- <none>
    1.2284,                  !- <none>
    1.2439,                  !- <none>
    1.2605,                  !- <none>
    1.2772,                  !- <none>
    1.2938,                  !- <none>
    1.3115;                  !- <none>

  LifeCycleCost:UsePriceEscalation,
    U.S. Avg  Commercial-Coal,  !- LCC Price Escalation Name
    Coal,                    !- Resource
    2011,                    !- Escalation Start Year
    January,                 !- Escalation Start Month
    0.9970,                  !- Year 1 Escalation
    1.0089,                  !- Year 2 Escalation
    1.0089,                  !- Year 3 Escalation
    0.9941,                  !- Year 4 Escalation
    0.9941,                  !- Year 5 Escalation
    1.0000,                  !- Year 6 Escalation
    1.0030,                  !- Year 7 Escalation
    1.0059,                  !- Year 8 Escalation
    1.0089,                  !- Year 9 Escalation
    1.0119,                  !- <none>
    1.0148,                  !- <none>
    1.0178,                  !- <none>
    1.0208,                  !- <none>
    1.0267,                  !- <none>
    1.0297,                  !- <none>
    1.0356,                  !- <none>
    1.0415,                  !- <none>
    1.0534,                  !- <none>
    1.0564,                  !- <none>
    1.0593,                  !- <none>
    1.0653,                  !- <none>
    1.0712,                  !- <none>
    1.0742,                  !- <none>
    1.0801,                  !- <none>
    1.0831,                  !- <none>
    1.0831,                  !- <none>
    1.0861,                  !- <none>
    1.0890,                  !- <none>
    1.0920,                  !- <none>
    1.0950;                  !- <none>

  Building,
    bld_35,                  !- Name
    ,                        !- North Axis {deg}
    City,                    !- Terrain
    ,                        !- Loads Convergence Tolerance Value {W}
    ,                        !- Temperature Convergence Tolerance Value {deltaC}
    ,                        !- Solar Distribution
    ,                        !- Maximum Number of Warmup Days
    ;                        !- Minimum Number of Warmup Days

  Shading:Building:Detailed,
    Shading Surface 40,      !- Name
    ,                        !- Transmittance Schedule Name
    ,                        !- Number of Vertices
    70.0869279083693,101.509136340374,12,  !- X,Y,Z ==> Vertex 1 {m}
    70.0869279083693,101.509136340374,0,  !- X,Y,Z ==> Vertex 2 {m}
    61.1271845449443,102.064355273678,0,  !- X,Y,Z ==> Vertex 3 {m}
    61.1271845449443,102.064355273678,12;  !- X,Y,Z ==> Vertex 4 {m}

  Shading:Building:Detailed,
    Shading Surface 41,      !- Name
    ,                        !- Transmittance Schedule Name
    ,                        !- Number of Vertices
    61.1271845449443,102.064355273678,12,  !- X,Y,Z ==> Vertex 1 {m}
    61.1271845449443,102.064355273678,0,  !- X,Y,Z ==> Vertex 2 {m}
    61.5457999339464,109.616436363363,0,  !- X,Y,Z ==> Vertex 3 {m}
    61.5457999339464,109.616436363363,12;  !- X,Y,Z ==> Vertex 4 {m}

  Shading:Building:Detailed,
    Shading Surface 42,      !- Name
    ,                        !- Transmittance Schedule Name
    ,                        !- Number of Vertices
    9.21093224432936,112.614800650696,12,  !- X,Y,Z ==> Vertex 1 {m}
    8.87599576465909,107.283921923626,12,  !- X,Y,Z ==> Vertex 2 {m}
    1.00482964852931,107.728156430947,12,  !- X,Y,Z ==> Vertex 3 {m}
    -1.08857089123698,71.4115491194285,12,  !- X,Y,Z ==> Vertex 4 {m}
    68.0775862823242,67.4137094144081,12,  !- X,Y,Z ==> Vertex 5 {m}
    70.0869279083693,101.509136340374,12,  !- X,Y,Z ==> Vertex 6 {m}
    61.1271845449443,102.064355273678,12,  !- X,Y,Z ==> Vertex 7 {m}
    61.5457999339464,109.616436363363,12;  !- X,Y,Z ==> Vertex 8 {m}

  Shading:Building:Detailed,
    Shading Surface 43,      !- Name
    ,                        !- Transmittance Schedule Name
    ,                        !- Number of Vertices
    61.5457999339464,109.616436363363,0,  !- X,Y,Z ==> Vertex 1 {m}
    61.1271845449443,102.064355273678,0,  !- X,Y,Z ==> Vertex 2 {m}
    70.0869279083693,101.509136340374,0,  !- X,Y,Z ==> Vertex 3 {m}
    68.0775862823242,67.4137094144081,0,  !- X,Y,Z ==> Vertex 4 {m}
    -1.08857089123698,71.4115491194285,0,  !- X,Y,Z ==> Vertex 5 {m}
    1.00482964852931,107.728156430947,0,  !- X,Y,Z ==> Vertex 6 {m}
    8.87599576465909,107.283921923626,0,  !- X,Y,Z ==> Vertex 7 {m}
    9.21093224432936,112.614800650696,0;  !- X,Y,Z ==> Vertex 8 {m}

  Shading:Building:Detailed,
    Shading Surface 44,      !- Name
    ,                        !- Transmittance Schedule Name
    ,                        !- Number of Vertices
    68.0775862823242,67.4137094144081,12,  !- X,Y,Z ==> Vertex 1 {m}
    68.0775862823242,67.4137094144081,0,  !- X,Y,Z ==> Vertex 2 {m}
    70.0869279083693,101.509136340374,0,  !- X,Y,Z ==> Vertex 3 {m}
    70.0869279083693,101.509136340374,12;  !- X,Y,Z ==> Vertex 4 {m}

  Shading:Building:Detailed,
    Shading Surface 45,      !- Name
    ,                        !- Transmittance Schedule Name
    ,                        !- Number of Vertices
    -1.08857089123698,71.4115491194285,12,  !- X,Y,Z ==> Vertex 1 {m}
    -1.08857089123698,71.4115491194285,0,  !- X,Y,Z ==> Vertex 2 {m}
    68.0775862823242,67.4137094144081,0,  !- X,Y,Z ==> Vertex 3 {m}
    68.0775862823242,67.4137094144081,12;  !- X,Y,Z ==> Vertex 4 {m}

  Shading:Building:Detailed,
    Shading Surface 46,      !- Name
    ,                        !- Transmittance Schedule Name
    ,                        !- Number of Vertices
    1.00482964852931,107.728156430947,12,  !- X,Y,Z ==> Vertex 1 {m}
    1.00482964852931,107.728156430947,0,  !- X,Y,Z ==> Vertex 2 {m}
    -1.08857089123698,71.4115491194285,0,  !- X,Y,Z ==> Vertex 3 {m}
    -1.08857089123698,71.4115491194285,12;  !- X,Y,Z ==> Vertex 4 {m}

  Shading:Building:Detailed,
    Shading Surface 47,      !- Name
    ,                        !- Transmittance Schedule Name
    ,                        !- Number of Vertices
    8.87599576465909,107.283921923626,12,  !- X,Y,Z ==> Vertex 1 {m}
    8.87599576465909,107.283921923626,0,  !- X,Y,Z ==> Vertex 2 {m}
    1.00482964852931,107.728156430947,0,  !- X,Y,Z ==> Vertex 3 {m}
    1.00482964852931,107.728156430947,12;  !- X,Y,Z ==> Vertex 4 {m}

  Shading:Building:Detailed,
    Shading Surface 48,      !- Name
    ,                        !- Transmittance Schedule Name
    ,                        !- Number of Vertices
    9.21093224432936,112.614800650696,12,  !- X,Y,Z ==> Vertex 1 {m}
    9.21093224432936,112.614800650696,0,  !- X,Y,Z ==> Vertex 2 {m}
    8.87599576465909,107.283921923626,0,  !- X,Y,Z ==> Vertex 3 {m}
    8.87599576465909,107.283921923626,12;  !- X,Y,Z ==> Vertex 4 {m}

  Shading:Building:Detailed,
    Shading Surface 49,      !- Name
    ,                        !- Transmittance Schedule Name
    ,                        !- Number of Vertices
    61.5457999339464,109.616436363363,12,  !- X,Y,Z ==> Vertex 1 {m}
    61.5457999339464,109.616436363363,0,  !- X,Y,Z ==> Vertex 2 {m}
    9.21093224432936,112.614800650696,0,  !- X,Y,Z ==> Vertex 3 {m}
    9.21093224432936,112.614800650696,12;  !- X,Y,Z ==> Vertex 4 {m}

  Shading:Building:Detailed,
    Shading Surface 50,      !- Name
    ,                        !- Transmittance Schedule Name
    ,                        !- Number of Vertices
    164.961152226179,36.4295353739124,0,  !- X,Y,Z ==> Vertex 1 {m}
    164.542642599416,28.7663892448409,0,  !- X,Y,Z ==> Vertex 2 {m}
    183.550907475071,27.5451850067294,0,  !- X,Y,Z ==> Vertex 3 {m}
    182.63017186562,12.8852485190237,0,  !- X,Y,Z ==> Vertex 4 {m}
    128.452340779586,16.2158874473272,0,  !- X,Y,Z ==> Vertex 5 {m}
    129.456910072139,31.5421783442596,0,  !- X,Y,Z ==> Vertex 6 {m}
    145.283162910922,30.5429379304783,0,  !- X,Y,Z ==> Vertex 7 {m}
    145.701703877411,37.6507832097974,0;  !- X,Y,Z ==> Vertex 8 {m}

  Shading:Building:Detailed,
    Shading Surface 51,      !- Name
    ,                        !- Transmittance Schedule Name
    ,                        !- Number of Vertices
    128.452340779586,16.2158874473272,12,  !- X,Y,Z ==> Vertex 1 {m}
    128.452340779586,16.2158874473272,0,  !- X,Y,Z ==> Vertex 2 {m}
    182.63017186562,12.8852485190237,0,  !- X,Y,Z ==> Vertex 3 {m}
    182.63017186562,12.8852485190237,12;  !- X,Y,Z ==> Vertex 4 {m}

  Shading:Building:Detailed,
    Shading Surface 52,      !- Name
    ,                        !- Transmittance Schedule Name
    ,                        !- Number of Vertices
    129.456910072139,31.5421783442596,12,  !- X,Y,Z ==> Vertex 1 {m}
    129.456910072139,31.5421783442596,0,  !- X,Y,Z ==> Vertex 2 {m}
    128.452340779586,16.2158874473272,0,  !- X,Y,Z ==> Vertex 3 {m}
    128.452340779586,16.2158874473272,12;  !- X,Y,Z ==> Vertex 4 {m}

  Shading:Building:Detailed,
    Shading Surface 53,      !- Name
    ,                        !- Transmittance Schedule Name
    ,                        !- Number of Vertices
    164.961152226179,36.4295353739124,12,  !- X,Y,Z ==> Vertex 1 {m}
    164.961152226179,36.4295353739124,0,  !- X,Y,Z ==> Vertex 2 {m}
    145.701703877411,37.6507832097974,0,  !- X,Y,Z ==> Vertex 3 {m}
    145.701703877411,37.6507832097974,12;  !- X,Y,Z ==> Vertex 4 {m}

  Shading:Building:Detailed,
    Shading Surface 54,      !- Name
    ,                        !- Transmittance Schedule Name
    ,                        !- Number of Vertices
    145.701703877411,37.6507832097974,12,  !- X,Y,Z ==> Vertex 1 {m}
    145.283162910922,30.5429379304783,12,  !- X,Y,Z ==> Vertex 2 {m}
    129.456910072139,31.5421783442596,12,  !- X,Y,Z ==> Vertex 3 {m}
    128.452340779586,16.2158874473272,12,  !- X,Y,Z ==> Vertex 4 {m}
    182.63017186562,12.8852485190237,12,  !- X,Y,Z ==> Vertex 5 {m}
    183.550907475071,27.5451850067294,12,  !- X,Y,Z ==> Vertex 6 {m}
    164.542642599416,28.7663892448409,12,  !- X,Y,Z ==> Vertex 7 {m}
    164.961152226179,36.4295353739124,12;  !- X,Y,Z ==> Vertex 8 {m}

  Shading:Building:Detailed,
    Shading Surface 55,      !- Name
    ,                        !- Transmittance Schedule Name
    ,                        !- Number of Vertices
    145.701703877411,37.6507832097974,12,  !- X,Y,Z ==> Vertex 1 {m}
    145.701703877411,37.6507832097974,0,  !- X,Y,Z ==> Vertex 2 {m}
    145.283162910922,30.5429379304783,0,  !- X,Y,Z ==> Vertex 3 {m}
    145.283162910922,30.5429379304783,12;  !- X,Y,Z ==> Vertex 4 {m}

  Shading:Building:Detailed,
    Shading Surface 56,      !- Name
    ,                        !- Transmittance Schedule Name
    ,                        !- Number of Vertices
    145.283162910922,30.5429379304783,12,  !- X,Y,Z ==> Vertex 1 {m}
    145.283162910922,30.5429379304783,0,  !- X,Y,Z ==> Vertex 2 {m}
    129.456910072139,31.5421783442596,0,  !- X,Y,Z ==> Vertex 3 {m}
    129.456910072139,31.5421783442596,12;  !- X,Y,Z ==> Vertex 4 {m}

  Shading:Building:Detailed,
    Shading Surface 57,      !- Name
    ,                        !- Transmittance Schedule Name
    ,                        !- Number of Vertices
    182.63017186562,12.8852485190237,12,  !- X,Y,Z ==> Vertex 1 {m}
    182.63017186562,12.8852485190237,0,  !- X,Y,Z ==> Vertex 2 {m}
    183.550907475071,27.5451850067294,0,  !- X,Y,Z ==> Vertex 3 {m}
    183.550907475071,27.5451850067294,12;  !- X,Y,Z ==> Vertex 4 {m}

  Shading:Building:Detailed,
    Shading Surface 58,      !- Name
    ,                        !- Transmittance Schedule Name
    ,                        !- Number of Vertices
    164.542642599416,28.7663892448409,12,  !- X,Y,Z ==> Vertex 1 {m}
    164.542642599416,28.7663892448409,0,  !- X,Y,Z ==> Vertex 2 {m}
    164.961152226179,36.4295353739124,0,  !- X,Y,Z ==> Vertex 3 {m}
    164.961152226179,36.4295353739124,12;  !- X,Y,Z ==> Vertex 4 {m}

  Shading:Building:Detailed,
    Shading Surface 59,      !- Name
    ,                        !- Transmittance Schedule Name
    ,                        !- Number of Vertices
    183.550907475071,27.5451850067294,12,  !- X,Y,Z ==> Vertex 1 {m}
    183.550907475071,27.5451850067294,0,  !- X,Y,Z ==> Vertex 2 {m}
    164.542642599416,28.7663892448409,0,  !- X,Y,Z ==> Vertex 3 {m}
    164.542642599416,28.7663892448409,12;  !- X,Y,Z ==> Vertex 4 {m}

  Shading:Building:Detailed,
    Shading Surface 60,      !- Name
    ,                        !- Transmittance Schedule Name
    ,                        !- Number of Vertices
    -22.0221660939891,223.341623123078,12,  !- X,Y,Z ==> Vertex 1 {m}
    -22.0221660939891,223.341623123078,0,  !- X,Y,Z ==> Vertex 2 {m}
    -17.4167666832973,224.785390426505,0,  !- X,Y,Z ==> Vertex 3 {m}
    -17.4167666832973,224.785390426505,12;  !- X,Y,Z ==> Vertex 4 {m}

  Shading:Building:Detailed,
    Shading Surface 61,      !- Name
    ,                        !- Transmittance Schedule Name
    ,                        !- Number of Vertices
    -29.558324122497,209.68127192134,12,  !- X,Y,Z ==> Vertex 1 {m}
    -29.558324122497,209.68127192134,0,  !- X,Y,Z ==> Vertex 2 {m}
    -28.9721511670731,217.344408371965,0,  !- X,Y,Z ==> Vertex 3 {m}
    -28.9721511670731,217.344408371965,12;  !- X,Y,Z ==> Vertex 4 {m}

  Shading:Building:Detailed,
    Shading Surface 62,      !- Name
    ,                        !- Transmittance Schedule Name
    ,                        !- Number of Vertices
    -52.7527148426529,223.674961172448,12,  !- X,Y,Z ==> Vertex 1 {m}
    -52.7527148426529,223.674961172448,0,  !- X,Y,Z ==> Vertex 2 {m}
    -57.4423305041872,162.258828219716,0,  !- X,Y,Z ==> Vertex 3 {m}
    -57.4423305041872,162.258828219716,12;  !- X,Y,Z ==> Vertex 4 {m}

  Shading:Building:Detailed,
    Shading Surface 63,      !- Name
    ,                        !- Transmittance Schedule Name
    ,                        !- Number of Vertices
    -51.3292014310286,227.562050448787,12,  !- X,Y,Z ==> Vertex 1 {m}
    -51.3292014310286,227.562050448787,0,  !- X,Y,Z ==> Vertex 2 {m}
    -53.7575054549737,226.784648110153,0,  !- X,Y,Z ==> Vertex 3 {m}
    -53.7575054549737,226.784648110153,12;  !- X,Y,Z ==> Vertex 4 {m}

  Shading:Building:Detailed,
    Shading Surface 64,      !- Name
    ,                        !- Transmittance Schedule Name
    ,                        !- Number of Vertices
    -49.8218394278951,248.33025753437,12,  !- X,Y,Z ==> Vertex 1 {m}
    -51.3292014310286,227.562050448787,12,  !- X,Y,Z ==> Vertex 2 {m}
    -53.7575054549737,226.784648110153,12,  !- X,Y,Z ==> Vertex 3 {m}
    -52.7527148426529,223.674961172448,12,  !- X,Y,Z ==> Vertex 4 {m}
    -57.4423305041872,162.258828219716,12,  !- X,Y,Z ==> Vertex 5 {m}
    -35.838663400062,160.592789967674,12,  !- X,Y,Z ==> Vertex 6 {m}
    -35.6711788362402,163.480348462592,12,  !- X,Y,Z ==> Vertex 7 {m}
    -18.086797943213,162.258623711675,12,  !- X,Y,Z ==> Vertex 8 {m}
    -17.4168952448772,171.143420047403,12,  !- X,Y,Z ==> Vertex 9 {m}
    -26.3764469095534,199.01950148185,12,  !- X,Y,Z ==> Vertex 10 {m}
    -32.9914898040411,199.57482840327,12,  !- X,Y,Z ==> Vertex 11 {m}
    -32.2378312733273,209.903403277391,12,  !- X,Y,Z ==> Vertex 12 {m}
    -29.558324122497,209.68127192134,12,  !- X,Y,Z ==> Vertex 13 {m}
    -28.9721511670731,217.344408371965,12,  !- X,Y,Z ==> Vertex 14 {m}
    -22.3571159406628,219.454524701203,12,  !- X,Y,Z ==> Vertex 15 {m}
    -22.0221660939891,223.341623123078,12,  !- X,Y,Z ==> Vertex 16 {m}
    -17.4167666832973,224.785390426505,12,  !- X,Y,Z ==> Vertex 17 {m}
    -17.1655551847811,228.228249365681,12,  !- X,Y,Z ==> Vertex 18 {m}
    -14.6535211515512,229.005663764785,12,  !- X,Y,Z ==> Vertex 19 {m}
    -13.8161559709475,240.111660768114,12,  !- X,Y,Z ==> Vertex 20 {m}
    -15.6582978958804,245.775723886174,12;  !- X,Y,Z ==> Vertex 21 {m}

  Shading:Building:Detailed,
    Shading Surface 65,      !- Name
    ,                        !- Transmittance Schedule Name
    ,                        !- Number of Vertices
    -32.9914898040411,199.57482840327,12,  !- X,Y,Z ==> Vertex 1 {m}
    -32.9914898040411,199.57482840327,0,  !- X,Y,Z ==> Vertex 2 {m}
    -32.2378312733273,209.903403277391,0,  !- X,Y,Z ==> Vertex 3 {m}
    -32.2378312733273,209.903403277391,12;  !- X,Y,Z ==> Vertex 4 {m}

  Shading:Building:Detailed,
    Shading Surface 66,      !- Name
    ,                        !- Transmittance Schedule Name
    ,                        !- Number of Vertices
    -17.4168952448772,171.143420047403,12,  !- X,Y,Z ==> Vertex 1 {m}
    -17.4168952448772,171.143420047403,0,  !- X,Y,Z ==> Vertex 2 {m}
    -26.3764469095534,199.01950148185,0,  !- X,Y,Z ==> Vertex 3 {m}
    -26.3764469095534,199.01950148185,12;  !- X,Y,Z ==> Vertex 4 {m}

  Shading:Building:Detailed,
    Shading Surface 67,      !- Name
    ,                        !- Transmittance Schedule Name
    ,                        !- Number of Vertices
    -49.8218394278951,248.33025753437,12,  !- X,Y,Z ==> Vertex 1 {m}
    -49.8218394278951,248.33025753437,0,  !- X,Y,Z ==> Vertex 2 {m}
    -51.3292014310286,227.562050448787,0,  !- X,Y,Z ==> Vertex 3 {m}
    -51.3292014310286,227.562050448787,12;  !- X,Y,Z ==> Vertex 4 {m}

  Shading:Building:Detailed,
    Shading Surface 68,      !- Name
    ,                        !- Transmittance Schedule Name
    ,                        !- Number of Vertices
    -15.6582978958804,245.775723886174,12,  !- X,Y,Z ==> Vertex 1 {m}
    -15.6582978958804,245.775723886174,0,  !- X,Y,Z ==> Vertex 2 {m}
    -49.8218394278951,248.33025753437,0,  !- X,Y,Z ==> Vertex 3 {m}
    -49.8218394278951,248.33025753437,12;  !- X,Y,Z ==> Vertex 4 {m}

  Shading:Building:Detailed,
    Shading Surface 69,      !- Name
    ,                        !- Transmittance Schedule Name
    ,                        !- Number of Vertices
    -13.8161559709475,240.111660768114,12,  !- X,Y,Z ==> Vertex 1 {m}
    -13.8161559709475,240.111660768114,0,  !- X,Y,Z ==> Vertex 2 {m}
    -15.6582978958804,245.775723886174,0,  !- X,Y,Z ==> Vertex 3 {m}
    -15.6582978958804,245.775723886174,12;  !- X,Y,Z ==> Vertex 4 {m}

  Shading:Building:Detailed,
    Shading Surface 70,      !- Name
    ,                        !- Transmittance Schedule Name
    ,                        !- Number of Vertices
    -17.1655551847811,228.228249365681,12,  !- X,Y,Z ==> Vertex 1 {m}
    -17.1655551847811,228.228249365681,0,  !- X,Y,Z ==> Vertex 2 {m}
    -14.6535211515512,229.005663764785,0,  !- X,Y,Z ==> Vertex 3 {m}
    -14.6535211515512,229.005663764785,12;  !- X,Y,Z ==> Vertex 4 {m}

  Shading:Building:Detailed,
    Shading Surface 71,      !- Name
    ,                        !- Transmittance Schedule Name
    ,                        !- Number of Vertices
    -14.6535211515512,229.005663764785,12,  !- X,Y,Z ==> Vertex 1 {m}
    -14.6535211515512,229.005663764785,0,  !- X,Y,Z ==> Vertex 2 {m}
    -13.8161559709475,240.111660768114,0,  !- X,Y,Z ==> Vertex 3 {m}
    -13.8161559709475,240.111660768114,12;  !- X,Y,Z ==> Vertex 4 {m}

  Shading:Building:Detailed,
    Shading Surface 72,      !- Name
    ,                        !- Transmittance Schedule Name
    ,                        !- Number of Vertices
    -28.9721511670731,217.344408371965,12,  !- X,Y,Z ==> Vertex 1 {m}
    -28.9721511670731,217.344408371965,0,  !- X,Y,Z ==> Vertex 2 {m}
    -22.3571159406628,219.454524701203,0,  !- X,Y,Z ==> Vertex 3 {m}
    -22.3571159406628,219.454524701203,12;  !- X,Y,Z ==> Vertex 4 {m}

  Shading:Building:Detailed,
    Shading Surface 73,      !- Name
    ,                        !- Transmittance Schedule Name
    ,                        !- Number of Vertices
    -22.3571159406628,219.454524701203,12,  !- X,Y,Z ==> Vertex 1 {m}
    -22.3571159406628,219.454524701203,0,  !- X,Y,Z ==> Vertex 2 {m}
    -22.0221660939891,223.341623123078,0,  !- X,Y,Z ==> Vertex 3 {m}
    -22.0221660939891,223.341623123078,12;  !- X,Y,Z ==> Vertex 4 {m}

  Shading:Building:Detailed,
    Shading Surface 74,      !- Name
    ,                        !- Transmittance Schedule Name
    ,                        !- Number of Vertices
    -35.6711788362402,163.480348462592,12,  !- X,Y,Z ==> Vertex 1 {m}
    -35.6711788362402,163.480348462592,0,  !- X,Y,Z ==> Vertex 2 {m}
    -18.086797943213,162.258623711675,0,  !- X,Y,Z ==> Vertex 3 {m}
    -18.086797943213,162.258623711675,12;  !- X,Y,Z ==> Vertex 4 {m}

  Shading:Building:Detailed,
    Shading Surface 75,      !- Name
    ,                        !- Transmittance Schedule Name
    ,                        !- Number of Vertices
    -53.7575054549737,226.784648110153,12,  !- X,Y,Z ==> Vertex 1 {m}
    -53.7575054549737,226.784648110153,0,  !- X,Y,Z ==> Vertex 2 {m}
    -52.7527148426529,223.674961172448,0,  !- X,Y,Z ==> Vertex 3 {m}
    -52.7527148426529,223.674961172448,12;  !- X,Y,Z ==> Vertex 4 {m}

  Shading:Building:Detailed,
    Shading Surface 76,      !- Name
    ,                        !- Transmittance Schedule Name
    ,                        !- Number of Vertices
    -17.4167666832973,224.785390426505,12,  !- X,Y,Z ==> Vertex 1 {m}
    -17.4167666832973,224.785390426505,0,  !- X,Y,Z ==> Vertex 2 {m}
    -17.1655551847811,228.228249365681,0,  !- X,Y,Z ==> Vertex 3 {m}
    -17.1655551847811,228.228249365681,12;  !- X,Y,Z ==> Vertex 4 {m}

  Shading:Building:Detailed,
    Shading Surface 77,      !- Name
    ,                        !- Transmittance Schedule Name
    ,                        !- Number of Vertices
    -18.086797943213,162.258623711675,12,  !- X,Y,Z ==> Vertex 1 {m}
    -18.086797943213,162.258623711675,0,  !- X,Y,Z ==> Vertex 2 {m}
    -17.4168952448772,171.143420047403,0,  !- X,Y,Z ==> Vertex 3 {m}
    -17.4168952448772,171.143420047403,12;  !- X,Y,Z ==> Vertex 4 {m}

  Shading:Building:Detailed,
    Shading Surface 78,      !- Name
    ,                        !- Transmittance Schedule Name
    ,                        !- Number of Vertices
    -32.2378312733273,209.903403277391,12,  !- X,Y,Z ==> Vertex 1 {m}
    -32.2378312733273,209.903403277391,0,  !- X,Y,Z ==> Vertex 2 {m}
    -29.558324122497,209.68127192134,0,  !- X,Y,Z ==> Vertex 3 {m}
    -29.558324122497,209.68127192134,12;  !- X,Y,Z ==> Vertex 4 {m}

  Shading:Building:Detailed,
    Shading Surface 79,      !- Name
    ,                        !- Transmittance Schedule Name
    ,                        !- Number of Vertices
    -26.3764469095534,199.01950148185,12,  !- X,Y,Z ==> Vertex 1 {m}
    -26.3764469095534,199.01950148185,0,  !- X,Y,Z ==> Vertex 2 {m}
    -32.9914898040411,199.57482840327,0,  !- X,Y,Z ==> Vertex 3 {m}
    -32.9914898040411,199.57482840327,12;  !- X,Y,Z ==> Vertex 4 {m}

  Shading:Building:Detailed,
    Shading Surface 80,      !- Name
    ,                        !- Transmittance Schedule Name
    ,                        !- Number of Vertices
    -15.6582978958804,245.775723886174,0,  !- X,Y,Z ==> Vertex 1 {m}
    -13.8161559709475,240.111660768114,0,  !- X,Y,Z ==> Vertex 2 {m}
    -14.6535211515512,229.005663764785,0,  !- X,Y,Z ==> Vertex 3 {m}
    -17.1655551847811,228.228249365681,0,  !- X,Y,Z ==> Vertex 4 {m}
    -17.4167666832973,224.785390426505,0,  !- X,Y,Z ==> Vertex 5 {m}
    -22.0221660939891,223.341623123078,0,  !- X,Y,Z ==> Vertex 6 {m}