  ConvergenceLimits,
    0,                       !- Minimum System Timestep {minutes}
    25;                      !- Maximum HVAC Iterations

  Version,23.1;

  Timestep,1;

  LifeCycleCost:Parameters,
    Life Cycle Cost Parameters,  !- Name
    EndOfYear,               !- Discounting Convention
    ConstantDollar,          !- Inflation Approach
    0.03,                    !- Real Discount Rate
    ,                        !- Nominal Discount Rate
    ,                        !- Inflation
    ,                        !- Base Date Month
    2011,                    !- Base Date Year
    ,                        !- Service Date Month
    2011,                    !- Service Date Year
    25,                      !- Length of Study Period in Years
    ,                        !- Tax rate
    None;                    !- Depreciation Method

  LifeCycleCost:UsePriceEscalation,
    U.S. Avg  Commercial-Electricity,  !- LCC Price Escalation Name
    Electricity,             !- Resource
    2011,                    !- Escalation Start Year
    January,                 !- Escalation Start Month
    0.9838,                  !- Year 1 Escalation
    0.9730,                  !- Year 2 Escalation
    0.9632,                  !- Year 3 Escalation
    0.9611,                  !- Year 4 Escalation
    0.9571,                  !- Year 5 Escalation
    0.9553,                  !- Year 6 Escalation
    0.9539,                  !- Year 7 Escalation
    0.9521,                  !- Year 8 Escalation
    0.9546,                  !- Year 9 Escalation
    0.9550,                  !- <none>
    0.9553,                  !- <none>
    0.9564,                  !- <none>
    0.9575,                  !- <none>
    0.9596,                  !- <none>
    0.9618,                  !- <none>
    0.9614,                  !- <none>
    0.9618,                  !- <none>
    0.9618,                  !- <none>
    0.9593,                  !- <none>
    0.9589,                  !- <none>
    0.9607,                  !- <none>
    0.9625,                  !- <none>
    0.9650,                  !- <none>
    0.9708,                  !- <none>
    0.9751,                  !- <none>
    0.9762,                  !- <none>
    0.9766,                  !- <none>
    0.9766,                  !- <none>
    0.9769,                  !- <none>
    0.9773;                  !- <none>

  LifeCycleCost:UsePriceEscalation,
    U.S. Avg  Commercial-Distillate Oil,  !- LCC Price Escalation Name
    FuelOilNo1,              !- Resource
    2011,                    !- Escalation Start Year
    January,                 !- Escalation Start Month
    0.9714,                  !- Year 1 Escalation
    0.9730,                  !- Year 2 Escalation
    0.9942,                  !- Year 3 Escalation
    1.0164,                  !- Year 4 Escalation
    1.0541,                  !- Year 5 Escalation
    1.0928,                  !- Year 6 Escalation
    1.1267,                  !- Year 7 Escalation
    1.1580,                  !- Year 8 Escalation
    1.1792,                  !- Year 9 Escalation
    1.1967,                  !- <none>
    1.2200,                  !- <none>
    1.2333,                  !- <none>
    1.2566,                  !- <none>
    1.2709,                  !- <none>
    1.2826,                  !- <none>
    1.2985,                  !- <none>
    1.3102,                  !- <none>
    1.3250,                  !- <none>
    1.3261,                  !- <none>
    1.3282,                  !- <none>
    1.3324,                  !- <none>
    1.3356,                  !- <none>
    1.3431,                  !- <none>
    1.3510,                  !- <none>
    1.3568,                  !- <none>
    1.3606,                  !- <none>
    1.3637,                  !- <none>
    1.3674,                  !- <none>
    1.3706,                  !- <none>
    1.3743;                  !- <none>

  LifeCycleCost:UsePriceEscalation,
    U.S. Avg  Commercial-Residual Oil,  !- LCC Price Escalation Name
    FuelOilNo2,              !- Resource
    2011,                    !- Escalation Start Year
    January,                 !- Escalation Start Month
    0.8469,                  !- Year 1 Escalation
    0.8257,                  !- Year 2 Escalation
    0.8681,                  !- Year 3 Escalation
    0.8988,                  !- Year 4 Escalation
    0.9289,                  !- Year 5 Escalation
    0.9604,                  !- Year 6 Escalation
    0.9897,                  !- Year 7 Escalation
    1.0075,                  !- Year 8 Escalation
    1.0314,                  !- Year 9 Escalation
    1.0554,                  !- <none>
    1.0861,                  !- <none>
    1.1278,                  !- <none>
    1.1497,                  !- <none>
    1.1620,                  !- <none>
    1.1743,                  !- <none>
    1.1852,                  !- <none>
    1.1948,                  !- <none>
    1.2037,                  !- <none>
    1.2071,                  !- <none>
    1.2119,                  !- <none>
    1.2139,                  !- <none>
    1.2194,                  !- <none>
    1.2276,                  !- <none>
    1.2365,                  !- <none>
    1.2420,                  !- <none>
    1.2461,                  !- <none>
    1.2509,                  !- <none>
    1.2550,                  !- <none>
    1.2591,                  !- <none>
    1.2638;                  !- <none>

  LifeCycleCost:UsePriceEscalation,
    U.S. Avg  Commercial-Natural gas,  !- LCC Price Escalation Name
    NaturalGas,              !- Resource
    2011,                    !- Escalation Start Year
    January,                 !- Escalation Start Month
    0.9823,                  !- Year 1 Escalation
    0.9557,                  !- Year 2 Escalation
    0.9279,                  !- Year 3 Escalation
    0.9257,                  !- Year 4 Escalation
    0.9346,                  !- Year 5 Escalation
    0.9412,                  !- Year 6 Escalation
    0.9512,                  !- Year 7 Escalation
    0.9645,                  !- Year 8 Escalation
    0.9856,                  !- Year 9 Escalation
    1.0067,                  !- <none>
    1.0222,                  !- <none>
    1.0410,                  !- <none>
    1.0610,                  !- <none>
    1.0787,                  !- <none>
    1.0942,                  !- <none>
    1.1098,                  !- <none>
    1.1220,                  !- <none>
    1.1308,                  !- <none>
    1.1386,                  !- <none>
    1.1486,                  !- <none>
    1.1619,                  !- <none>
    1.1763,                  !- <none>
    1.1918,                  !- <none>
    1.2118,                  !- <none>
    1.2284,                  !- <none>
    1.2439,                  !- <none>
    1.2605,                  !- <none>
    1.2772,                  !- <none>
    1.2938,                  !- <none>
    1.3115;                  !- <none>

  LifeCycleCost:UsePriceEscalation,
    U.S. Avg  Commercial-Coal,  !- LCC Price Escalation Name
    Coal,                    !- Resource
    2011,                    !- Escalation Start Year
    January,                 !- Escalation Start Month
    0.9970,                  !- Year 1 Escalation
    1.0089,                  !- Year 2 Escalation
    1.0089,                  !- Year 3 Escalation
    0.9941,                  !- Year 4 Escalation
    0.9941,                  !- Year 5 Escalation
    1.0000,                  !- Year 6 Escalation
    1.0030,                  !- Year 7 Escalation
    1.0059,                  !- Year 8 Escalation
    1.0089,                  !- Year 9 Escalation
    1.0119,                  !- <none>
    1.0148,                  !- <none>
    1.0178,                  !- <none>
    1.0208,                  !- <none>
    1.0267,                  !- <none>
    1.0297,                  !- <none>
    1.0356,                  !- <none>
    1.0415,                  !- <none>
    1.0534,                  !- <none>
    1.0564,                  !- <none>
    1.0593,                  !- <none>
    1.0653,                  !- <none>
    1.0712,                  !- <none>
    1.0742,                  !- <none>
    1.0801,                  !- <none>
    1.0831,                  !- <none>
    1.0831,                  !- <none>
    1.0861,                  !- <none>
    1.0890,                  !- <none>
    1.0920,                  !- <none>
    1.0950;                  !- <none>

  Building,
    bld_25,                  !- Name
    ,                        !- North Axis {deg}
    City,                    !- Terrain
    ,                        !- Loads Convergence Tolerance Value {W}
    ,                        !- Temperature Convergence Tolerance Value {deltaC}
    ,                        !- Solar Distribution
    ,                        !- Maximum Number of Warmup Days
    ;                        !- Minimum Number of Warmup Days

  Shading:Building:Detailed,
    Shading Surface 1,       !- Name
    ,                        !- Transmittance Schedule Name
    ,                        !- Number of Vertices
    -167.801093921479,272.098892834888,12,  !- X,Y,Z ==> Vertex 1 {m}
    -167.801093921479,272.098892834888,0,  !- X,Y,Z ==> Vertex 2 {m}
    -167.21453046152,290.868020524572,0,  !- X,Y,Z ==> Vertex 3 {m}
    -167.21453046152,290.868020524572,12;  !- X,Y,Z ==> Vertex 4 {m}

  Shading:Building:Detailed,
    Shading Surface 2,       !- Name
    ,                        !- Transmittance Schedule Name
    ,                        !- Number of Vertices
    -175.839010130288,291.090344105755,12,  !- X,Y,Z ==> Vertex 1 {m}
    -176.425595847045,272.32121710588,12,  !- X,Y,Z ==> Vertex 2 {m}
    -167.801093921479,272.098892834888,12,  !- X,Y,Z ==> Vertex 3 {m}
    -167.21453046152,290.868020524572,12;  !- X,Y,Z ==> Vertex 4 {m}

  Shading:Building:Detailed,
    Shading Surface 3,       !- Name
    ,                        !- Transmittance Schedule Name
    ,                        !- Number of Vertices
    -176.425595847045,272.32121710588,12,  !- X,Y,Z ==> Vertex 1 {m}
    -176.425595847045,272.32121710588,0,  !- X,Y,Z ==> Vertex 2 {m}
    -167.801093921479,272.098892834888,0,  !- X,Y,Z ==> Vertex 3 {m}
    -167.801093921479,272.098892834888,12;  !- X,Y,Z ==> Vertex 4 {m}

  Shading:Building:Detailed,
    Shading Surface 4,       !- Name
    ,                        !- Transmittance Schedule Name
    ,                        !- Number of Vertices
    -175.839010130288,291.090344105755,12,  !- X,Y,Z ==> Vertex 1 {m}
    -175.839010130288,291.090344105755,0,  !- X,Y,Z ==> Vertex 2 {m}
    -176.425595847045,272.32121710588,0,  !- X,Y,Z ==> Vertex 3 {m}
    -176.425595847045,272.32121710588,12;  !- X,Y,Z ==> Vertex 4 {m}

  Shading:Building:Detailed,
    Shading Surface 5,       !- Name
    ,                        !- Transmittance Schedule Name
    ,                        !- Number of Vertices
    -167.21453046152,290.868020524572,12,  !- X,Y,Z ==> Vertex 1 {m}
    -167.21453046152,290.868020524572,0,  !- X,Y,Z ==> Vertex 2 {m}
    -175.839010130288,291.090344105755,0,  !- X,Y,Z ==> Vertex 3 {m}
    -175.839010130288,291.090344105755,12;  !- X,Y,Z ==> Vertex 4 {m}

  Shading:Building:Detailed,
    Shading Surface 6,       !- Name
    ,                        !- Transmittance Schedule Name
    ,                        !- Number of Vertices
    -167.21453046152,290.868020524572,0,  !- X,Y,Z ==> Vertex 1 {m}
    -167.801093921479,272.098892834888,0,  !- X,Y,Z ==> Vertex 2 {m}
    -176.425595847045,272.32121710588,0,  !- X,Y,Z ==> Vertex 3 {m}
    -175.839010130288,291.090344105755,0;  !- X,Y,Z ==> Vertex 4 {m}

  Shading:Building:Detailed,
    Shading Surface 45,      !- Name
    ,                        !- Transmittance Schedule Name
    ,                        !- Number of Vertices
    -218.217876105601,-43.1990460882931,12,  !- X,Y,Z ==> Vertex 1 {m}
    -218.217876105601,-43.1990460882931,0,  !- X,Y,Z ==> Vertex 2 {m}
    -217.798962882683,-35.5359220116806,0,  !- X,Y,Z ==> Vertex 3 {m}
    -217.798962882683,-35.5359220116806,12;  !- X,Y,Z ==> Vertex 4 {m}

  Shading:Building:Detailed,
    Shading Surface 46,      !- Name
    ,                        !- Transmittance Schedule Name
    ,                        !- Number of Vertices
    -200.131183281765,-59.0811394132461,12,  !- X,Y,Z ==> Vertex 1 {m}
    -200.131183281765,-59.0811394132461,0,  !- X,Y,Z ==> Vertex 2 {m}
    -199.209675576819,-44.4212514389398,0,  !- X,Y,Z ==> Vertex 3 {m}
    -199.209675576819,-44.4212514389398,12;  !- X,Y,Z ==> Vertex 4 {m}

  Shading:Building:Detailed,
    Shading Surface 47,      !- Name
    ,                        !- Transmittance Schedule Name
    ,                        !- Number of Vertices
    -237.058346878409,-34.3136598334444,12,  !- X,Y,Z ==> Vertex 1 {m}
    -237.058346878409,-34.3136598334444,0,  !- X,Y,Z ==> Vertex 2 {m}
    -237.477262194909,-41.421483059432,0,  !- X,Y,Z ==> Vertex 3 {m}
    -237.477262194909,-41.421483059432,12;  !- X,Y,Z ==> Vertex 4 {m}

  Shading:Building:Detailed,
    Shading Surface 48,      !- Name
    ,                        !- Transmittance Schedule Name
    ,                        !- Number of Vertices
    -217.798962882683,-35.5359220116806,0,  !- X,Y,Z ==> Vertex 1 {m}
    -218.217876105601,-43.1990460882931,0,  !- X,Y,Z ==> Vertex 2 {m}
    -199.209675576819,-44.4212514389398,0,  !- X,Y,Z ==> Vertex 3 {m}
    -200.131183281765,-59.0811394132461,0,  !- X,Y,Z ==> Vertex 4 {m}
    -254.308838859413,-55.7476470870976,0,  !- X,Y,Z ==> Vertex 5 {m}
    -253.303462376492,-40.4214091197975,0,  !- X,Y,Z ==> Vertex 6 {m}
    -237.477262194909,-41.421483059432,0,  !- X,Y,Z ==> Vertex 7 {m}
    -237.058346878409,-34.3136598334444,0;  !- X,Y,Z ==> Vertex 8 {m}

  Shading:Building:Detailed,
    Shading Surface 49,      !- Name
    ,                        !- Transmittance Schedule Name
    ,                        !- Number of Vertices
    -199.209675576819,-44.4212514389398,12,  !- X,Y,Z ==> Vertex 1 {m}
    -199.209675576819,-44.4212514389398,0,  !- X,Y,Z ==> Vertex 2 {m}
    -218.217876105601,-43.1990460882931,0,  !- X,Y,Z ==> Vertex 3 {m}
    -218.217876105601,-43.1990460882931,12;  !- X,Y,Z ==> Vertex 4 {m}

  Shading:Building:Detailed,
    Shading Surface 50,      !- Name
    ,                        !- Transmittance Schedule Name
    ,                        !- Number of Vertices
    -217.798962882683,-35.5359220116806,12,  !- X,Y,Z ==> Vertex 1 {m}
    -217.798962882683,-35.5359220116806,0,  !- X,Y,Z ==> Vertex 2 {m}
    -237.058346878409,-34.3136598334444,0,  !- X,Y,Z ==> Vertex 3 {m}
    -237.058346878409,-34.3136598334444,12;  !- X,Y,Z ==> Vertex 4 {m}

  Shading:Building:Detailed,
    Shading Surface 51,      !- Name
    ,                        !- Transmittance Schedule Name
    ,                        !- Number of Vertices
    -253.303462376492,-40.4214091197975,12,  !- X,Y,Z ==> Vertex 1 {m}
    -253.303462376492,-40.4214091197975,0,  !- X,Y,Z ==> Vertex 2 {m}
    -254.308838859413,-55.7476470870976,0,  !- X,Y,Z ==> Vertex 3 {m}
    -254.308838859413,-55.7476470870976,12;  !- X,Y,Z ==> Vertex 4 {m}

  Shading:Building:Detailed,
    Shading Surface 52,      !- Name
    ,                        !- Transmittance Schedule Name
    ,                        !- Number of Vertices
    -237.477262194909,-41.421483059432,12,  !- X,Y,Z ==> Vertex 1 {m}
    -237.477262194909,-41.421483059432,0,  !- X,Y,Z ==> Vertex 2 {m}
    -253.303462376492,-40.4214091197975,0,  !- X,Y,Z ==> Vertex 3 {m}
    -253.303462376492,-40.4214091197975,12;  !- X,Y,Z ==> Vertex 4 {m}

  Shading:Building:Detailed,
    Shading Surface 53,      !- Name
    ,                        !- Transmittance Schedule Name
    ,                        !- Number of Vertices
    -237.058346878409,-34.3136598334444,12,  !- X,Y,Z ==> Vertex 1 {m}
    -237.477262194909,-41.421483059432,12,  !- X,Y,Z ==> Vertex 2 {m}
    -253.303462376492,-40.4214091197975,12,  !- X,Y,Z ==> Vertex 3 {m}
    -254.308838859413,-55.7476470870976,12,  !- X,Y,Z ==> Vertex 4 {m}
    -200.131183281765,-59.0811394132461,12,  !- X,Y,Z ==> Vertex 5 {m}
    -199.209675576819,-44.4212514389398,12,  !- X,Y,Z ==> Vertex 6 {m}
    -218.217876105601,-43.1990460882931,12,  !- X,Y,Z ==> Vertex 7 {m}
    -217.798962882683,-35.5359220116806,12;  !- X,Y,Z ==> Vertex 8 {m}

  Shading:Building:Detailed,
    Shading Surface 54,      !- Name
    ,                        !- Transmittance Schedule Name
    ,                        !- Number of Vertices
    -254.308838859413,-55.7476470870976,12,  !- X,Y,Z ==> Vertex 1 {m}
    -254.308838859413,-55.7476470870976,0,  !- X,Y,Z ==> Vertex 2 {m}
    -200.131183281765,-59.0811394132461,0,  !- X,Y,Z ==> Vertex 3 {m}
    -200.131183281765,-59.0811394132461,12;  !- X,Y,Z ==> Vertex 4 {m}

  Shading:Building:Detailed,
    Shading Surface 55,      !- Name
    ,                        !- Transmittance Schedule Name
    ,                        !- Number of Vertices
    13.8997001249178,267.543508626344,12,  !- X,Y,Z ==> Vertex 1 {m}
    13.8997001249178,267.543508626344,0,  !- X,Y,Z ==> Vertex 2 {m}
    14.4858163388179,275.428770153507,0,  !- X,Y,Z ==> Vertex 3 {m}
    14.4858163388179,275.428770153507,12;  !- X,Y,Z ==> Vertex 4 {m}

  Shading:Building:Detailed,
    Shading Surface 56,      !- Name
    ,                        !- Transmittance Schedule Name
    ,                        !- Number of Vertices
    18.0863576182218,267.210337825746,12,  !- X,Y,Z ==> Vertex 1 {m}
    18.0863576182218,267.210337825746,0,  !- X,Y,Z ==> Vertex 2 {m}
    13.8997001249178,267.543508626344,0,  !- X,Y,Z ==> Vertex 3 {m}
    13.8997001249178,267.543508626344,12;  !- X,Y,Z ==> Vertex 4 {m}

  Shading:Building:Detailed,
    Shading Surface 57,      !- Name
    ,                        !- Transmittance Schedule Name
    ,                        !- Number of Vertices
    14.4858163388179,275.428770153507,0,  !- X,Y,Z ==> Vertex 1 {m}
    13.8997001249178,267.543508626344,0,  !- X,Y,Z ==> Vertex 2 {m}
    18.0863576182218,267.210337825746,0,  !- X,Y,Z ==> Vertex 3 {m}
    17.3327834894833,257.103875644817,0,  !- X,Y,Z ==> Vertex 4 {m}
    7.28479228131841,257.881278648162,0,  !- X,Y,Z ==> Vertex 5 {m}
    7.78718484612143,264.322759376672,0,  !- X,Y,Z ==> Vertex 6 {m}
    -9.37811336426027,265.655481305963,0,  !- X,Y,Z ==> Vertex 7 {m}
    -8.45703521666577,277.205720737307,0;  !- X,Y,Z ==> Vertex 8 {m}

  Shading:Building:Detailed,
    Shading Surface 58,      !- Name
    ,                        !- Transmittance Schedule Name
    ,                        !- Number of Vertices
    7.28479228131841,257.881278648162,12,  !- X,Y,Z ==> Vertex 1 {m}
    7.28479228131841,257.881278648162,0,  !- X,Y,Z ==> Vertex 2 {m}
    17.3327834894833,257.103875644817,0,  !- X,Y,Z ==> Vertex 3 {m}
    17.3327834894833,257.103875644817,12;  !- X,Y,Z ==> Vertex 4 {m}

  Shading:Building:Detailed,
    Shading Surface 59,      !- Name
    ,                        !- Transmittance Schedule Name
    ,                        !- Number of Vertices
    7.78718484612143,264.322759376672,12,  !- X,Y,Z ==> Vertex 1 {m}
    7.78718484612143,264.322759376672,0,  !- X,Y,Z ==> Vertex 2 {m}
    7.28479228131841,257.881278648162,0,  !- X,Y,Z ==> Vertex 3 {m}
    7.28479228131841,257.881278648162,12;  !- X,Y,Z ==> Vertex 4 {m}

  Shading:Building:Detailed,
    Shading Surface 60,      !- Name
    ,                        !- Transmittance Schedule Name
    ,                        !- Number of Vertices
    -8.45703521666577,277.205720737307,12,  !- X,Y,Z ==> Vertex 1 {m}
    -9.37811336426027,265.655481305963,12,  !- X,Y,Z ==> Vertex 2 {m}
    7.78718484612143,264.322759376672,12,  !- X,Y,Z ==> Vertex 3 {m}
    7.28479228131841,257.881278648162,12,  !- X,Y,Z ==> Vertex 4 {m}
    17.3327834894833,257.103875644817,12,  !- X,Y,Z ==> Vertex 5 {m}
    18.0863576182218,267.210337825746,12,  !- X,Y,Z ==> Vertex 6 {m}
    13.8997001249178,267.543508626344,12,  !- X,Y,Z ==> Vertex 7 {m}
    14.4858163388179,275.428770153507,12;  !- X,Y,Z ==> Vertex 8 {m}

  Shading:Building:Detailed,
    Shading Surface 61,      !- Name
    ,                        !- Transmittance Schedule Name
    ,                        !- Number of Vertices
    -8.45703521666577,277.205720737307,12,  !- X,Y,Z ==> Vertex 1 {m}
    -8.45703521666577,277.205720737307,0,  !- X,Y,Z ==> Vertex 2 {m}
    -9.37811336426027,265.655481305963,0,  !- X,Y,Z ==> Vertex 3 {m}
    -9.37811336426027,265.655481305963,12;  !- X,Y,Z ==> Vertex 4 {m}

  Shading:Building:Detailed,
    Shading Surface 62,      !- Name
    ,                        !- Transmittance Schedule Name
    ,                        !- Number of Vertices
    17.3327834894833,257.103875644817,12,  !- X,Y,Z ==> Vertex 1 {m}
    17.3327834894833,257.103875644817,0,  !- X,Y,Z ==> Vertex 2 {m}
    18.0863576182218,267.210337825746,0,  !- X,Y,Z ==> Vertex 3 {m}
    18.0863576182218,267.210337825746,12;  !- X,Y,Z ==> Vertex 4 {m}

  Shading:Building:Detailed,
    Shading Surface 63,      !- Name
    ,                        !- Transmittance Schedule Name
    ,                        !- Number of Vertices
    -9.37811336426027,265.655481305963,12,  !- X,Y,Z ==> Vertex 1 {m}
    -9.37811336426027,265.655481305963,0,  !- X,Y,Z ==> Vertex 2 {m}
    7.78718484612143,264.322759376672,0,  !- X,Y,Z ==> Vertex 3 {m}
    7.78718484612143,264.322759376672,12;  !- X,Y,Z ==> Vertex 4 {m}

  Shading:Building:Detailed,
    Shading Surface 64,      !- Name
    ,                        !- Transmittance Schedule Name
    ,                        !- Number of Vertices
    14.4858163388179,275.428770153507,12,  !- X,Y,Z ==> Vertex 1 {m}
    14.4858163388179,275.428770153507,0,  !- X,Y,Z ==> Vertex 2 {m}
    -8.45703521666577,277.205720737307,0,  !- X,Y,Z ==> Vertex 3 {m}
    -8.45703521666577,277.205720737307,12;  !- X,Y,Z ==> Vertex 4 {m}

  Shading:Building:Detailed,
    Shading Surface 65,      !- Name
    ,                        !- Transmittance Schedule Name
    ,                        !- Number of Vertices
    -111.119546357337,-103.840202922907,12,  !- X,Y,Z ==> Vertex 1 {m}
    -111.119546357337,-103.840202922907,0,  !- X,Y,Z ==> Vertex 2 {m}
    -113.883458742156,-140.712059172259,0,  !- X,Y,Z ==> Vertex 3 {m}
    -113.883458742156,-140.712059172259,12;  !- X,Y,Z ==> Vertex 4 {m}

  Shading:Building:Detailed,
    Shading Surface 66,      !- Name
    ,                        !- Transmittance Schedule Name
    ,                        !- Number of Vertices
    -172.749819942485,-84.4035094742273,12,  !- X,Y,Z ==> Vertex 1 {m}
    -174.090035292193,-101.95094832144,12,  !- X,Y,Z ==> Vertex 2 {m}
    -171.661656209469,-102.173125966929,12,  !- X,Y,Z ==> Vertex 3 {m}
    -172.750601341669,-117.277251875994,12,  !- X,Y,Z ==> Vertex 4 {m}
    -178.779695257248,-116.832866311702,12,  !- X,Y,Z ==> Vertex 5 {m}
    -180.036179618285,-133.825005554628,12,  !- X,Y,Z ==> Vertex 6 {m}
    -154.831154703992,-135.713605129599,12,  !- X,Y,Z ==> Vertex 7 {m}
    -153.155928684886,-113.390593396398,12,  !- X,Y,Z ==> Vertex 8 {m}
    -145.535825258481,-113.946049678392,12,  !- X,Y,Z ==> Vertex 9 {m}
    -144.865739073398,-104.617028180202,12,  !- X,Y,Z ==> Vertex 10 {m}
    -133.728676330622,-105.394661224269,12,  !- X,Y,Z ==> Vertex 11 {m}
    -133.477404888317,-102.173927580696,12,  !- X,Y,Z ==> Vertex 12 {m}
    -111.119546357337,-103.840202922907,12,  !- X,Y,Z ==> Vertex 13 {m}
    -113.883458742156,-140.712059172259,12,  !- X,Y,Z ==> Vertex 14 {m}
    -101.825222619731,-141.600717591687,12,  !- X,Y,Z ==> Vertex 15 {m}
    -97.8050900260075,-88.4030624463523,12,  !- X,Y,Z ==> Vertex 16 {m}
    -108.774654460182,-87.5144269986711,12,  !- X,Y,Z ==> Vertex 17 {m}
    -109.025919448289,-91.0683413967651,12,  !- X,Y,Z ==> Vertex 18 {m}
    -132.723535104844,-89.4020481165114,12,  !- X,Y,Z ==> Vertex 19 {m}
    -132.472258587561,-85.8481345293083,12,  !- X,Y,Z ==> Vertex 20 {m}
    -141.850810389524,-85.0705379226241,12,  !- X,Y,Z ==> Vertex 21 {m}
    -141.934577952174,-86.625375491614,12;  !- X,Y,Z ==> Vertex 22 {m}

  Shading:Building:Detailed,
    Shading Surface 67,      !- Name
    ,                        !- Transmittance Schedule Name
    ,                        !- Number of Vertices
    -109.025919448289,-91.0683413967651,12,  !- X,Y,Z ==> Vertex 1 {m}
    -109.025919448289,-91.0683413967651,0,  !- X,Y,Z ==> Vertex 2 {m}
    -132.723535104844,-89.4020481165114,0,  !- X,Y,Z ==> Vertex 3 {m}
    -132.723535104844,-89.4020481165114,12;  !- X,Y,Z ==> Vertex 4 {m}

  Shading:Building:Detailed,
    Shading Surface 68,      !- Name
    ,                        !- Transmittance Schedule Name
    ,                        !- Number of Vertices
    -108.774654460182,-87.5144269986711,12,  !- X,Y,Z ==> Vertex 1 {m}
    -108.774654460182,-87.5144269986711,0,  !- X,Y,Z ==> Vertex 2 {m}
    -109.025919448289,-91.0683413967651,0,  !- X,Y,Z ==> Vertex 3 {m}
    -109.025919448289,-91.0683413967651,12;  !- X,Y,Z ==> Vertex 4 {m}

  Shading:Building:Detailed,
    Shading Surface 69,      !- Name
    ,                        !- Transmittance Schedule Name
    ,                        !- Number of Vertices
    -132.472258587561,-85.8481345293083,12,  !- X,Y,Z ==> Vertex 1 {m}
    -132.472258587561,-85.8481345293083,0,  !- X,Y,Z ==> Vertex 2 {m}
    -141.850810389524,-85.0705379226241,0,  !- X,Y,Z ==> Vertex 3 {m}
    -141.850810389524,-85.0705379226241,12;  !- X,Y,Z ==> Vertex 4 {m}

  Shading:Building:Detailed,
    Shading Surface 70,      !- Name
    ,                        !- Transmittance Schedule Name
    ,                        !- Number of Vertices
    -180.036179618285,-133.825005554628,12,  !- X,Y,Z ==> Vertex 1 {m}
    -180.036179618285,-133.825005554628,0,  !- X,Y,Z ==> Vertex 2 {m}
    -154.831154703992,-135.713605129599,0,  !- X,Y,Z ==> Vertex 3 {m}
    -154.831154703992,-135.713605129599,12;  !- X,Y,Z ==> Vertex 4 {m}

  Shading:Building:Detailed,
    Shading Surface 71,      !- Name
    ,                        !- Transmittance Schedule Name
    ,                        !- Number of Vertices
    -172.750601341669,-117.277251875994,12,  !- X,Y,Z ==> Vertex 1 {m}
    -172.750601341669,-117.277251875994,0,  !- X,Y,Z ==> Vertex 2 {m}
    -178.779695257248,-116.832866311702,0,  !- X,Y,Z ==> Vertex 3 {m}
    -178.779695257248,-116.832866311702,12;  !- X,Y,Z ==> Vertex 4 {m}

  Shading:Building:Detailed,
    Shading Surface 72,      !- Name
    ,                        !- Transmittance Schedule Name
    ,                        !- Number of Vertices
    -172.749819942485,-84.4035094742273,12,  !- X,Y,Z ==> Vertex 1 {m}
    -172.749819942485,-84.4035094742273,0,  !- X,Y,Z ==> Vertex 2 {m}
    -174.090035292193,-101.95094832144,0,  !- X,Y,Z ==> Vertex 3 {m}
    -174.090035292193,-101.95094832144,12;  !- X,Y,Z ==> Vertex 4 {m}

  Shading:Building:Detailed,
    Shading Surface 73,      !- Name
    ,                        !- Transmittance Schedule Name
    ,                        !- Number of Vertices
    -97.8050900260075,-88.4030624463523,12,  !- X,Y,Z ==> Vertex 1 {m}
    -97.8050900260075,-88.4030624463523,0,  !- X,Y,Z ==> Vertex 2 {m}
    -108.774654460182,-87.5144269986711,0,  !- X,Y,Z ==> Vertex 3 {m}
    -108.774654460182,-87.5144269986711,12;  !- X,Y,Z ==> Vertex 4 {m}

  Shading:Building:Detailed,
    Shading Surface 74,      !- Name
    ,                        !- Transmittance Schedule Name
    ,                        !- Number of Vertices
    -171.661656209469,-102.173125966929,12,  !- X,Y,Z ==> Vertex 1 {m}
    -171.661656209469,-102.173125966929,0,  !- X,Y,Z ==> Vertex 2 {m}
    -172.750601341669,-117.277251875994,0,  !- X,Y,Z ==> Vertex 3 {m}
    -172.750601341669,-117.277251875994,12;  !- X,Y,Z ==> Vertex 4 {m}

  Shading:Building:Detailed,
    Shading Surface 75,      !- Name
    ,                        !- Transmittance Schedule Name
    ,                        !- Number of Vertices
    -141.850810389524,-85.0705379226241,12,  !- X,Y,Z ==> Vertex 1 {m}
    -141.850810389524,-85.0705379226241,0,  !- X,Y,Z ==> Vertex 2 {m}
    -141.934577952174,-86.625375491614,0,  !- X,Y,Z ==> Vertex 3 {m}
    -141.934577952174,-86.625375491614,12;  !- X,Y,Z ==> Vertex 4 {m}

  Shading:Building:Detailed,
    Shading Surface 76,      !- Name
    ,                        !- Transmittance Schedule Name
    ,                        !- Number of Vertices
    -154.831154703992,-135.713605129599,12,  !- X,Y,Z ==> Vertex 1 {m}
    -154.831154703992,-135.713605129599,0,  !- X,Y,Z ==> Vertex 2 {m}
    -153.155928684886,-113.390593396398,0,  !- X,Y,Z ==> Vertex 3 {m}
    -153.155928684886,-113.390593396398,12;  !- X,Y,Z ==> Vertex 4 {m}

  Shading:Building:Detailed,
    Shading Surface 77,      !- Name
    ,                        !- Transmittance Schedule Name
    ,                        !- Number of Vertices
    -145.535825258481,-113.946049678392,12,  !- X,Y,Z ==> Vertex 1 {m}
    -145.535825258481,-113.946049678392,0,  !- X,Y,Z ==> Vertex 2 {m}
    -144.865739073398,-104.617028180202,0,  !- X,Y,Z ==> Vertex 3 {m}
    -144.865739073398,-104.617028180202,12;  !- X,Y,Z ==> Vertex 4 {m}

  Shading:Building:Detailed,
    Shading Surface 78,      !- Name
    ,                        !- Transmittance Schedule Name
    ,                        !- Number of Vertices
    -101.825222619731,-141.600717591687,12,  !- X,Y,Z ==> Vertex 1 {m}
    -101.825222619731,-141.600717591687,0,  !- X,Y,Z ==> Vertex 2 {m}
    -97.8050900260075,-88.4030624463523,0,  !- X,Y,Z ==> Vertex 3 {m}
    -97.8050900260075,-88.4030624463523,12;  !- X,Y,Z ==> Vertex 4 {m}

  Shading:Building:Detailed,
    Shading Surface 79,      !- Name
    ,                        !- Transmittance Schedule Name
    ,                        !- Number of Vertices
    -133.477404888317,-102.173927580696,12,  !- X,Y,Z ==> Vertex 1 {m}
    -133.477404888317,-102.173927580696,0,  !- X,Y,Z ==> Vertex 2 {m}