  ConvergenceLimits,
    0,                       !- Minimum System Timestep {minutes}
    25;                      !- Maximum HVAC Iterations

  Version,23.1;

  Timestep,1;

  LifeCycleCost:Parameters,
    Life Cycle Cost Parameters,  !- Name
    EndOfYear,               !- Discounting Convention
    ConstantDollar,          !- Inflation Approach
    0.03,                    !- Real Discount Rate
    ,                        !- Nominal Discount Rate
    ,                        !- Inflation
    ,                        !- Base Date Month
    2011,                    !- Base Date Year
    ,                        !- Service Date Month
    2011,                    !- Service Date Year
    25,                      !- Length of Study Period in Years
    ,                        !- Tax rate
    None;                    !- Depreciation Method

  LifeCycleCost:UsePriceEscalation,
    U.S. Avg  Commercial-Electricity,  !- LCC Price Escalation Name
    Electricity,             !- Resource
    2011,                    !- Escalation Start Year
    January,                 !- Escalation Start Month
    0.9838,                  !- Year 1 Escalation
    0.9730,                  !- Year 2 Escalation
    0.9632,                  !- Year 3 Escalation
    0.9611,                  !- Year 4 Escalation
    0.9571,                  !- Year 5 Escalation
    0.9553,                  !- Year 6 Escalation
    0.9539,                  !- Year 7 Escalation
    0.9521,                  !- Year 8 Escalation
    0.9546,                  !- Year 9 Escalation
    0.9550,                  !- <none>
    0.9553,                  !- <none>
    0.9564,                  !- <none>
    0.9575,                  !- <none>
    0.9596,                  !- <none>
    0.9618,                  !- <none>
    0.9614,                  !- <none>
    0.9618,                  !- <none>
    0.9618,                  !- <none>
    0.9593,                  !- <none>
    0.9589,                  !- <none>
    0.9607,                  !- <none>
    0.9625,                  !- <none>
    0.9650,                  !- <none>
    0.9708,                  !- <none>
    0.9751,                  !- <none>
    0.9762,                  !- <none>
    0.9766,                  !- <none>
    0.9766,                  !- <none>
    0.9769,                  !- <none>
    0.9773;                  !- <none>

  LifeCycleCost:UsePriceEscalation,
    U.S. Avg  Commercial-Distillate Oil,  !- LCC Price Escalation Name
    FuelOilNo1,              !- Resource
    2011,                    !- Escalation Start Year
    January,                 !- Escalation Start Month
    0.9714,                  !- Year 1 Escalation
    0.9730,                  !- Year 2 Escalation
    0.9942,                  !- Year 3 Escalation
    1.0164,                  !- Year 4 Escalation
    1.0541,                  !- Year 5 Escalation
    1.0928,                  !- Year 6 Escalation
    1.1267,                  !- Year 7 Escalation
    1.1580,                  !- Year 8 Escalation
    1.1792,                  !- Year 9 Escalation
    1.1967,                  !- <none>
    1.2200,                  !- <none>
    1.2333,                  !- <none>
    1.2566,                  !- <none>
    1.2709,                  !- <none>
    1.2826,                  !- <none>
    1.2985,                  !- <none>
    1.3102,                  !- <none>
    1.3250,                  !- <none>
    1.3261,                  !- <none>
    1.3282,                  !- <none>
    1.3324,                  !- <none>
    1.3356,                  !- <none>
    1.3431,                  !- <none>
    1.3510,                  !- <none>
    1.3568,                  !- <none>
    1.3606,                  !- <none>
    1.3637,                  !- <none>
    1.3674,                  !- <none>
    1.3706,                  !- <none>
    1.3743;                  !- <none>

  LifeCycleCost:UsePriceEscalation,
    U.S. Avg  Commercial-Residual Oil,  !- LCC Price Escalation Name
    FuelOilNo2,              !- Resource
    2011,                    !- Escalation Start Year
    January,                 !- Escalation Start Month
    0.8469,                  !- Year 1 Escalation
    0.8257,                  !- Year 2 Escalation
    0.8681,                  !- Year 3 Escalation
    0.8988,                  !- Year 4 Escalation
    0.9289,                  !- Year 5 Escalation
    0.9604,                  !- Year 6 Escalation
    0.9897,                  !- Year 7 Escalation
    1.0075,                  !- Year 8 Escalation
    1.0314,                  !- Year 9 Escalation
    1.0554,                  !- <none>
    1.0861,                  !- <none>
    1.1278,                  !- <none>
    1.1497,                  !- <none>
    1.1620,                  !- <none>
    1.1743,                  !- <none>
    1.1852,                  !- <none>
    1.1948,                  !- <none>
    1.2037,                  !- <none>
    1.2071,                  !- <none>
    1.2119,                  !- <none>
    1.2139,                  !- <none>
    1.2194,                  !- <none>
    1.2276,                  !- <none>
    1.2365,                  !- <none>
    1.2420,                  !- <none>
    1.2461,                  !- <none>
    1.2509,                  !- <none>
    1.2550,                  !- <none>
    1.2591,                  !- <none>
    1.2638;                  !- <none>

  LifeCycleCost:UsePriceEscalation,
    U.S. Avg  Commercial-Natural gas,  !- LCC Price Escalation Name
    NaturalGas,              !- Resource
    2011,                    !- Escalation Start Year
    January,                 !- Escalation Start Month
    0.9823,                  !- Year 1 Escalation
    0.9557,                  !- Year 2 Escalation
    0.9279,                  !- Year 3 Escalation
    0.9257,                  !- Year 4 Escalation
    0.9346,                  !- Year 5 Escalation
    0.9412,                  !- Year 6 Escalation
    0.9512,                  !- Year 7 Escalation
    0.9645,                  !- Year 8 Escalation
    0.9856,                  !- Year 9 Escalation
    1.0067,                  !- <none>
    1.0222,                  !- <none>
    1.0410,                  !- <none>
    1.0610,                  !- <none>
    1.0787,                  !- <none>
    1.0942,                  !- <none>
    1.1098,                  !- <none>
    1.1220,                  !- <none>
    1.1308,                  !- <none>
    1.1386,                  !- <none>
    1.1486,                  !- <none>
    1.1619,                  !- <none>
    1.1763,                  !- <none>
    1.1918,                  !- <none>
    1.2118,                  !- <none>
    1.2284,                  !- <none>
    1.2439,                  !- <none>
    1.2605,                  !- <none>
    1.2772,                  !- <none>
    1.2938,                  !- <none>
    1.3115;                  !- <none>

  LifeCycleCost:UsePriceEscalation,
    U.S. Avg  Commercial-Coal,  !- LCC Price Escalation Name
    Coal,                    !- Resource
    2011,                    !- Escalation Start Year
    January,                 !- Escalation Start Month
    0.9970,                  !- Year 1 Escalation
    1.0089,                  !- Year 2 Escalation
    1.0089,                  !- Year 3 Escalation
    0.9941,                  !- Year 4 Escalation
    0.9941,                  !- Year 5 Escalation
    1.0000,                  !- Year 6 Escalation
    1.0030,                  !- Year 7 Escalation
    1.0059,                  !- Year 8 Escalation
    1.0089,                  !- Year 9 Escalation
    1.0119,                  !- <none>
    1.0148,                  !- <none>
    1.0178,                  !- <none>
    1.0208,                  !- <none>
    1.0267,                  !- <none>
    1.0297,                  !- <none>
    1.0356,                  !- <none>
    1.0415,                  !- <none>
    1.0534,                  !- <none>
    1.0564,                  !- <none>
    1.0593,                  !- <none>
    1.0653,                  !- <none>
    1.0712,                  !- <none>
    1.0742,                  !- <none>
    1.0801,                  !- <none>
    1.0831,                  !- <none>
    1.0831,                  !- <none>
    1.0861,                  !- <none>
    1.0890,                  !- <none>
    1.0920,                  !- <none>
    1.0950;                  !- <none>

  Building,
    bld_10,                  !- Name
    ,                        !- North Axis {deg}
    City,                    !- Terrain
    ,                        !- Loads Convergence Tolerance Value {W}
    ,                        !- Temperature Convergence Tolerance Value {deltaC}
    ,                        !- Solar Distribution
    ,                        !- Maximum Number of Warmup Days
    ;                        !- Minimum Number of Warmup Days

  Shading:Building:Detailed,
    Shading Surface 54,      !- Name
    ,                        !- Transmittance Schedule Name
    ,                        !- Number of Vertices
    146.790279825253,-29.7625854280674,12,  !- X,Y,Z ==> Vertex 1 {m}
    146.790279825253,-29.7625854280674,0,  !- X,Y,Z ==> Vertex 2 {m}
    146.371739923425,-36.8704307701842,0,  !- X,Y,Z ==> Vertex 3 {m}
    146.371739923425,-36.8704307701842,12;  !- X,Y,Z ==> Vertex 4 {m}

  Shading:Building:Detailed,
    Shading Surface 55,      !- Name
    ,                        !- Transmittance Schedule Name
    ,                        !- Number of Vertices
    129.540919938147,-51.1974837779557,12,  !- X,Y,Z ==> Vertex 1 {m}
    129.540919938147,-51.1974837779557,0,  !- X,Y,Z ==> Vertex 2 {m}
    183.718751522838,-54.5281145770161,0,  !- X,Y,Z ==> Vertex 3 {m}
    183.718751522838,-54.5281145770161,12;  !- X,Y,Z ==> Vertex 4 {m}

  Shading:Building:Detailed,
    Shading Surface 56,      !- Name
    ,                        !- Transmittance Schedule Name
    ,                        !- Number of Vertices
    165.631219877942,-38.6469765660324,12,  !- X,Y,Z ==> Vertex 1 {m}
    165.631219877942,-38.6469765660324,0,  !- X,Y,Z ==> Vertex 2 {m}
    166.049728356868,-30.9838303741733,0,  !- X,Y,Z ==> Vertex 3 {m}
    166.049728356868,-30.9838303741733,12;  !- X,Y,Z ==> Vertex 4 {m}

  Shading:Building:Detailed,
    Shading Surface 57,      !- Name
    ,                        !- Transmittance Schedule Name
    ,                        !- Number of Vertices
    183.718751522838,-54.5281145770161,12,  !- X,Y,Z ==> Vertex 1 {m}
    183.718751522838,-54.5281145770161,0,  !- X,Y,Z ==> Vertex 2 {m}
    184.639484936428,-39.8681779514456,0,  !- X,Y,Z ==> Vertex 3 {m}
    184.639484936428,-39.8681779514456,12;  !- X,Y,Z ==> Vertex 4 {m}

  Shading:Building:Detailed,
    Shading Surface 58,      !- Name
    ,                        !- Transmittance Schedule Name
    ,                        !- Number of Vertices
    184.639484936428,-39.8681779514456,12,  !- X,Y,Z ==> Vertex 1 {m}
    184.639484936428,-39.8681779514456,0,  !- X,Y,Z ==> Vertex 2 {m}
    165.631219877942,-38.6469765660324,0,  !- X,Y,Z ==> Vertex 3 {m}
    165.631219877942,-38.6469765660324,12;  !- X,Y,Z ==> Vertex 4 {m}

  Shading:Building:Detailed,
    Shading Surface 59,      !- Name
    ,                        !- Transmittance Schedule Name
    ,                        !- Number of Vertices
    130.545486935028,-35.8711927305876,12,  !- X,Y,Z ==> Vertex 1 {m}
    130.545486935028,-35.8711927305876,0,  !- X,Y,Z ==> Vertex 2 {m}
    129.540919938147,-51.1974837779557,0,  !- X,Y,Z ==> Vertex 3 {m}
    129.540919938147,-51.1974837779557,12;  !- X,Y,Z ==> Vertex 4 {m}

  Shading:Building:Detailed,
    Shading Surface 60,      !- Name
    ,                        !- Transmittance Schedule Name
    ,                        !- Number of Vertices
    146.790279825253,-29.7625854280674,12,  !- X,Y,Z ==> Vertex 1 {m}
    146.371739923425,-36.8704307701842,12,  !- X,Y,Z ==> Vertex 2 {m}
    130.545486935028,-35.8711927305876,12,  !- X,Y,Z ==> Vertex 3 {m}
    129.540919938147,-51.1974837779557,12,  !- X,Y,Z ==> Vertex 4 {m}
    183.718751522838,-54.5281145770161,12,  !- X,Y,Z ==> Vertex 5 {m}
    184.639484936428,-39.8681779514456,12,  !- X,Y,Z ==> Vertex 6 {m}
    165.631219877942,-38.6469765660324,12,  !- X,Y,Z ==> Vertex 7 {m}
    166.049728356868,-30.9838303741733,12;  !- X,Y,Z ==> Vertex 8 {m}

  Shading:Building:Detailed,
    Shading Surface 61,      !- Name
    ,                        !- Transmittance Schedule Name
    ,                        !- Number of Vertices
    166.049728356868,-30.9838303741733,12,  !- X,Y,Z ==> Vertex 1 {m}
    166.049728356868,-30.9838303741733,0,  !- X,Y,Z ==> Vertex 2 {m}
    146.790279825253,-29.7625854280674,0,  !- X,Y,Z ==> Vertex 3 {m}
    146.790279825253,-29.7625854280674,12;  !- X,Y,Z ==> Vertex 4 {m}

  Shading:Building:Detailed,
    Shading Surface 62,      !- Name
    ,                        !- Transmittance Schedule Name
    ,                        !- Number of Vertices
    146.371739923425,-36.8704307701842,12,  !- X,Y,Z ==> Vertex 1 {m}
    146.371739923425,-36.8704307701842,0,  !- X,Y,Z ==> Vertex 2 {m}
    130.545486935028,-35.8711927305876,0,  !- X,Y,Z ==> Vertex 3 {m}
    130.545486935028,-35.8711927305876,12;  !- X,Y,Z ==> Vertex 4 {m}

  Shading:Building:Detailed,
    Shading Surface 63,      !- Name
    ,                        !- Transmittance Schedule Name
    ,                        !- Number of Vertices
    166.049728356868,-30.9838303741733,0,  !- X,Y,Z ==> Vertex 1 {m}
    165.631219877942,-38.6469765660324,0,  !- X,Y,Z ==> Vertex 2 {m}
    184.639484936428,-39.8681779514456,0,  !- X,Y,Z ==> Vertex 3 {m}
    183.718751522838,-54.5281145770161,0,  !- X,Y,Z ==> Vertex 4 {m}
    129.540919938147,-51.1974837779557,0,  !- X,Y,Z ==> Vertex 5 {m}
    130.545486935028,-35.8711927305876,0,  !- X,Y,Z ==> Vertex 6 {m}
    146.371739923425,-36.8704307701842,0,  !- X,Y,Z ==> Vertex 7 {m}
    146.790279825253,-29.7625854280674,0;  !- X,Y,Z ==> Vertex 8 {m}

  Shading:Building:Detailed,
    Shading Surface 64,      !- Name
    ,                        !- Transmittance Schedule Name
    ,                        !- Number of Vertices
    -34.7501058672259,93.1793941341854,12,  !- X,Y,Z ==> Vertex 1 {m}
    -34.7501058672259,93.1793941341854,0,  !- X,Y,Z ==> Vertex 2 {m}
    -34.5826217359313,96.0669526547975,0,  !- X,Y,Z ==> Vertex 3 {m}
    -34.5826217359313,96.0669526547975,12;  !- X,Y,Z ==> Vertex 4 {m}

  Shading:Building:Detailed,
    Shading Surface 65,      !- Name
    ,                        !- Transmittance Schedule Name
    ,                        !- Number of Vertices
    -16.3283392924085,103.730026974772,12,  !- X,Y,Z ==> Vertex 1 {m}
    -16.3283392924085,103.730026974772,0,  !- X,Y,Z ==> Vertex 2 {m}
    -25.2878951326653,131.606107074541,0,  !- X,Y,Z ==> Vertex 3 {m}
    -25.2878951326653,131.606107074541,12;  !- X,Y,Z ==> Vertex 4 {m}

  Shading:Building:Detailed,
    Shading Surface 66,      !- Name
    ,                        !- Transmittance Schedule Name
    ,                        !- Number of Vertices
    -31.902938110341,132.161433005589,12,  !- X,Y,Z ==> Vertex 1 {m}
    -31.902938110341,132.161433005589,0,  !- X,Y,Z ==> Vertex 2 {m}
    -31.1492811267557,142.490007995498,0,  !- X,Y,Z ==> Vertex 3 {m}
    -31.1492811267557,142.490007995498,12;  !- X,Y,Z ==> Vertex 4 {m}

  Shading:Building:Detailed,
    Shading Surface 67,      !- Name
    ,                        !- Transmittance Schedule Name
    ,                        !- Number of Vertices
    -25.2878951326653,131.606107074541,12,  !- X,Y,Z ==> Vertex 1 {m}
    -25.2878951326653,131.606107074541,0,  !- X,Y,Z ==> Vertex 2 {m}
    -31.902938110341,132.161433005589,0,  !- X,Y,Z ==> Vertex 3 {m}
    -31.902938110341,132.161433005589,12;  !- X,Y,Z ==> Vertex 4 {m}

  Shading:Building:Detailed,
    Shading Surface 68,      !- Name
    ,                        !- Transmittance Schedule Name
    ,                        !- Number of Vertices
    -51.6641667589659,156.261562823326,12,  !- X,Y,Z ==> Vertex 1 {m}
    -51.6641667589659,156.261562823326,0,  !- X,Y,Z ==> Vertex 2 {m}
    -56.3537732209333,94.8454291522935,0,  !- X,Y,Z ==> Vertex 3 {m}
    -56.3537732209333,94.8454291522935,12;  !- X,Y,Z ==> Vertex 4 {m}

  Shading:Building:Detailed,
    Shading Surface 69,      !- Name
    ,                        !- Transmittance Schedule Name
    ,                        !- Number of Vertices
    -16.0770077831066,160.814856346464,12,  !- X,Y,Z ==> Vertex 1 {m}
    -16.0770077831066,160.814856346464,0,  !- X,Y,Z ==> Vertex 2 {m}
    -13.5649738663261,161.592271122025,0,  !- X,Y,Z ==> Vertex 3 {m}
    -13.5649738663261,161.592271122025,12;  !- X,Y,Z ==> Vertex 4 {m}

  Shading:Building:Detailed,
    Shading Surface 70,      !- Name
    ,                        !- Transmittance Schedule Name
    ,                        !- Number of Vertices
    -20.933617960341,155.928229374997,12,  !- X,Y,Z ==> Vertex 1 {m}
    -20.933617960341,155.928229374997,0,  !- X,Y,Z ==> Vertex 2 {m}
    -16.3282187659111,157.371997368562,0,  !- X,Y,Z ==> Vertex 3 {m}
    -16.3282187659111,157.371997368562,12;  !- X,Y,Z ==> Vertex 4 {m}

  Shading:Building:Detailed,
    Shading Surface 71,      !- Name
    ,                        !- Transmittance Schedule Name
    ,                        !- Number of Vertices
    -48.7332950373699,180.916859632311,12,  !- X,Y,Z ==> Vertex 1 {m}
    -50.2406539295934,160.14865231401,12,  !- X,Y,Z ==> Vertex 2 {m}
    -52.6689578370934,159.371249611607,12,  !- X,Y,Z ==> Vertex 3 {m}
    -51.6641667589659,156.261562823326,12,  !- X,Y,Z ==> Vertex 4 {m}
    -56.3537732209333,94.8454291522935,12,  !- X,Y,Z ==> Vertex 5 {m}
    -34.7501058672259,93.1793941341854,12,  !- X,Y,Z ==> Vertex 6 {m}
    -34.5826217359313,96.0669526547975,12,  !- X,Y,Z ==> Vertex 7 {m}
    -16.9982406598898,94.8452305367537,12,  !- X,Y,Z ==> Vertex 8 {m}
    -16.3283392924085,103.730026974772,12,  !- X,Y,Z ==> Vertex 9 {m}
    -25.2878951326653,131.606107074541,12,  !- X,Y,Z ==> Vertex 10 {m}
    -31.902938110341,132.161433005589,12,  !- X,Y,Z ==> Vertex 11 {m}
    -31.1492811267557,142.490007995498,12,  !- X,Y,Z ==> Vertex 12 {m}
    -28.4697739426499,142.267877040602,12,  !- X,Y,Z ==> Vertex 13 {m}
    -27.8836021350973,149.931013581294,12,  !- X,Y,Z ==> Vertex 14 {m}
    -21.2685672247602,152.041130901748,12,  !- X,Y,Z ==> Vertex 15 {m}
    -20.933617960341,155.928229374997,12,  !- X,Y,Z ==> Vertex 16 {m}
    -16.3282187659111,157.371997368562,12,  !- X,Y,Z ==> Vertex 17 {m}
    -16.0770077831066,160.814856346464,12,  !- X,Y,Z ==> Vertex 18 {m}
    -13.5649738663261,161.592271122025,12,  !- X,Y,Z ==> Vertex 19 {m}
    -12.727610349311,172.698268254475,12,  !- X,Y,Z ==> Vertex 20 {m}
    -14.5697531226769,178.362331098624,12;  !- X,Y,Z ==> Vertex 21 {m}

  Shading:Building:Detailed,
    Shading Surface 72,      !- Name
    ,                        !- Transmittance Schedule Name
    ,                        !- Number of Vertices
    -16.9982406598898,94.8452305367537,12,  !- X,Y,Z ==> Vertex 1 {m}
    -16.9982406598898,94.8452305367537,0,  !- X,Y,Z ==> Vertex 2 {m}
    -16.3283392924085,103.730026974772,0,  !- X,Y,Z ==> Vertex 3 {m}
    -16.3283392924085,103.730026974772,12;  !- X,Y,Z ==> Vertex 4 {m}

  Shading:Building:Detailed,
    Shading Surface 73,      !- Name
    ,                        !- Transmittance Schedule Name
    ,                        !- Number of Vertices
    -34.5826217359313,96.0669526547975,12,  !- X,Y,Z ==> Vertex 1 {m}
    -34.5826217359313,96.0669526547975,0,  !- X,Y,Z ==> Vertex 2 {m}
    -16.9982406598898,94.8452305367537,0,  !- X,Y,Z ==> Vertex 3 {m}
    -16.9982406598898,94.8452305367537,12;  !- X,Y,Z ==> Vertex 4 {m}

  Shading:Building:Detailed,
    Shading Surface 74,      !- Name
    ,                        !- Transmittance Schedule Name
    ,                        !- Number of Vertices
    -13.5649738663261,161.592271122025,12,  !- X,Y,Z ==> Vertex 1 {m}
    -13.5649738663261,161.592271122025,0,  !- X,Y,Z ==> Vertex 2 {m}
    -12.727610349311,172.698268254475,0,  !- X,Y,Z ==> Vertex 3 {m}
    -12.727610349311,172.698268254475,12;  !- X,Y,Z ==> Vertex 4 {m}

  Shading:Building:Detailed,
    Shading Surface 75,      !- Name
    ,                        !- Transmittance Schedule Name
    ,                        !- Number of Vertices
    -21.2685672247602,152.041130901748,12,  !- X,Y,Z ==> Vertex 1 {m}
    -21.2685672247602,152.041130901748,0,  !- X,Y,Z ==> Vertex 2 {m}
    -20.933617960341,155.928229374997,0,  !- X,Y,Z ==> Vertex 3 {m}
    -20.933617960341,155.928229374997,12;  !- X,Y,Z ==> Vertex 4 {m}

  Shading:Building:Detailed,
    Shading Surface 76,      !- Name
    ,                        !- Transmittance Schedule Name
    ,                        !- Number of Vertices
    -27.8836021350973,149.931013581294,12,  !- X,Y,Z ==> Vertex 1 {m}
    -27.8836021350973,149.931013581294,0,  !- X,Y,Z ==> Vertex 2 {m}
    -21.2685672247602,152.041130901748,0,  !- X,Y,Z ==> Vertex 3 {m}
    -21.2685672247602,152.041130901748,12;  !- X,Y,Z ==> Vertex 4 {m}

  Shading:Building:Detailed,
    Shading Surface 77,      !- Name
    ,                        !- Transmittance Schedule Name
    ,                        !- Number of Vertices
    -16.3282187659111,157.371997368562,12,  !- X,Y,Z ==> Vertex 1 {m}
    -16.3282187659111,157.371997368562,0,  !- X,Y,Z ==> Vertex 2 {m}
    -16.0770077831066,160.814856346464,0,  !- X,Y,Z ==> Vertex 3 {m}
    -16.0770077831066,160.814856346464,12;  !- X,Y,Z ==> Vertex 4 {m}

  Shading:Building:Detailed,
    Shading Surface 78,      !- Name
    ,                        !- Transmittance Schedule Name
    ,                        !- Number of Vertices
    -50.2406539295934,160.14865231401,12,  !- X,Y,Z ==> Vertex 1 {m}
    -50.2406539295934,160.14865231401,0,  !- X,Y,Z ==> Vertex 2 {m}
    -52.6689578370934,159.371249611607,0,  !- X,Y,Z ==> Vertex 3 {m}
    -52.6689578370934,159.371249611607,12;  !- X,Y,Z ==> Vertex 4 {m}

  Shading:Building:Detailed,
    Shading Surface 79,      !- Name
    ,                        !- Transmittance Schedule Name
    ,                        !- Number of Vertices
    -14.5697531226769,178.362331098624,0,  !- X,Y,Z ==> Vertex 1 {m}
    -12.727610349311,172.698268254475,0,  !- X,Y,Z ==> Vertex 2 {m}
    -13.5649738663261,161.592271122025,0,  !- X,Y,Z ==> Vertex 3 {m}
    -16.0770077831066,160.814856346464,0,  !- X,Y,Z ==> Vertex 4 {m}
    -16.3282187659111,157.371997368562,0,  !- X,Y,Z ==> Vertex 5 {m}
    -20.933617960341,155.928229374997,0,  !- X,Y,Z ==> Vertex 6 {m}
    -21.2685672247602,152.041130901748,0,  !- X,Y,Z ==> Vertex 7 {m}
    -27.8836021350973,149.931013581294,0,  !- X,Y,Z ==> Vertex 8 {m}
    -28.4697739426499,142.267877040602,0,  !- X,Y,Z ==> Vertex 9 {m}
    -31.1492811267557,142.490007995498,0,  !- X,Y,Z ==> Vertex 10 {m}
    -31.902938110341,132.161433005589,0,  !- X,Y,Z ==> Vertex 11 {m}
    -25.2878951326653,131.606107074541,0,  !- X,Y,Z ==> Vertex 12 {m}
    -16.3283392924085,103.730026974772,0,  !- X,Y,Z ==> Vertex 13 {m}
    -16.9982406598898,94.8452305367537,0,  !- X,Y,Z ==> Vertex 14 {m}
    -34.5826217359313,96.0669526547975,0,  !- X,Y,Z ==> Vertex 15 {m}
    -34.7501058672259,93.1793941341854,0,  !- X,Y,Z ==> Vertex 16 {m}
    -56.3537732209333,94.8454291522935,0,  !- X,Y,Z ==> Vertex 17 {m}
    -51.6641667589659,156.261562823326,0,  !- X,Y,Z ==> Vertex 18 {m}
    -52.6689578370934,159.371249611607,0,  !- X,Y,Z ==> Vertex 19 {m}
    -50.2406539295934,160.14865231401,0,  !- X,Y,Z ==> Vertex 20 {m}
    -48.7332950373699,180.916859632311,0;  !- X,Y,Z ==> Vertex 21 {m}

  Shading:Building:Detailed,
    Shading Surface 80,      !- Name
    ,                        !- Transmittance Schedule Name
    ,                        !- Number of Vertices
    -52.6689578370934,159.371249611607,12,  !- X,Y,Z ==> Vertex 1 {m}
    -52.6689578370934,159.371249611607,0,  !- X,Y,Z ==> Vertex 2 {m}
    -51.6641667589659,156.261562823326,0,  !- X,Y,Z ==> Vertex 3 {m}
    -51.6641667589659,156.261562823326,12;  !- X,Y,Z ==> Vertex 4 {m}

  Shading:Building:Detailed,
    Shading Surface 81,      !- Name
    ,                        !- Transmittance Schedule Name
    ,                        !- Number of Vertices
    -31.1492811267557,142.490007995498,12,  !- X,Y,Z ==> Vertex 1 {m}
    -31.1492811267557,142.490007995498,0,  !- X,Y,Z ==> Vertex 2 {m}
    -28.4697739426499,142.267877040602,0,  !- X,Y,Z ==> Vertex 3 {m}
    -28.4697739426499,142.267877040602,12;  !- X,Y,Z ==> Vertex 4 {m}

  Shading:Building:Detailed,
    Shading Surface 82,      !- Name
    ,                        !- Transmittance Schedule Name
    ,                        !- Number of Vertices
    -56.3537732209333,94.8454291522935,12,  !- X,Y,Z ==> Vertex 1 {m}
    -56.3537732209333,94.8454291522935,0,  !- X,Y,Z ==> Vertex 2 {m}
    -34.7501058672259,93.1793941341854,0,  !- X,Y,Z ==> Vertex 3 {m}
    -34.7501058672259,93.1793941341854,12;  !- X,Y,Z ==> Vertex 4 {m}

  Shading:Building:Detailed,
    Shading Surface 83,      !- Name
    ,                        !- Transmittance Schedule Name
    ,                        !- Number of Vertices
    -14.5697531226769,178.362331098624,12,  !- X,Y,Z ==> Vertex 1 {m}
    -14.5697531226769,178.362331098624,0,  !- X,Y,Z ==> Vertex 2 {m}
    -48.7332950373699,180.916859632311,0,  !- X,Y,Z ==> Vertex 3 {m}
    -48.7332950373699,180.916859632311,12;  !- X,Y,Z ==> Vertex 4 {m}

  Shading:Building:Detailed,
    Shading Surface 84,      !- Name
    ,                        !- Transmittance Schedule Name
    ,                        !- Number of Vertices
    -28.4697739426499,142.267877040602,12,  !- X,Y,Z ==> Vertex 1 {m}
    -28.4697739426499,142.267877040602,0,  !- X,Y,Z ==> Vertex 2 {m}
    -27.8836021350973,149.931013581294,0,  !- X,Y,Z ==> Vertex 3 {m}
    -27.8836021350973,149.931013581294,12;  !- X,Y,Z ==> Vertex 4 {m}

  Shading:Building:Detailed,
    Shading Surface 85,      !- Name
    ,                        !- Transmittance Schedule Name
    ,                        !- Number of Vertices
    -48.7332950373699,180.916859632311,12,  !- X,Y,Z ==> Vertex 1 {m}
    -48.7332950373699,180.916859632311,0,  !- X,Y,Z ==> Vertex 2 {m}
    -50.2406539295934,160.14865231401,0,  !- X,Y,Z ==> Vertex 3 {m}
    -50.2406539295934,160.14865231401,12;  !- X,Y,Z ==> Vertex 4 {m}

  Shading:Building:Detailed,
    Shading Surface 86,      !- Name
    ,                        !- Transmittance Schedule Name
    ,                        !- Number of Vertices
    -12.727610349311,172.698268254475,12,  !- X,Y,Z ==> Vertex 1 {m}
    -12.727610349311,172.698268254475,0,  !- X,Y,Z ==> Vertex 2 {m}
    -14.5697531226769,178.362331098624,0,  !- X,Y,Z ==> Vertex 3 {m}
    -14.5697531226769,178.362331098624,12;  !- X,Y,Z ==> Vertex 4 {m}

  Shading:Building:Detailed,
    Shading Surface 87,      !- Name
    ,                        !- Transmittance Schedule Name
    ,                        !- Number of Vertices
    -67.6565309270134,254.994028038566,12,  !- X,Y,Z ==> Vertex 1 {m}
    -67.6565309270134,254.994028038566,0,  !- X,Y,Z ==> Vertex 2 {m}
    -73.0997816831388,196.909702478088,0,  !- X,Y,Z ==> Vertex 3 {m}
    -73.0997816831388,196.909702478088,12;  !- X,Y,Z ==> Vertex 4 {m}

  Shading:Building:Detailed,
    Shading Surface 88,      !- Name
    ,                        !- Transmittance Schedule Name
    ,                        !- Number of Vertices
    -53.9242441461615,257.770413217158,12,  !- X,Y,Z ==> Vertex 1 {m}
    -54.3429405369052,253.772256267778,12,  !- X,Y,Z ==> Vertex 2 {m}
    -67.6565309270134,254.994028038566,12,  !- X,Y,Z ==> Vertex 3 {m}
    -73.0997816831388,196.909702478088,12,  !- X,Y,Z ==> Vertex 4 {m}
    -43.7091645119293,194.132966490664,12,  !- X,Y,Z ==> Vertex 5 {m}
    -42.3693358275706,208.570757570533,12,  !- X,Y,Z ==> Vertex 6 {m}
    -57.5251540119186,210.014641654387,12,  !- X,Y,Z ==> Vertex 7 {m}
    -54.8454571141959,238.334920016547,12,  !- X,Y,Z ==> Vertex 8 {m}
    -42.9553035111803,237.224240022426,12,  !- X,Y,Z ==> Vertex 9 {m}
    -41.1130564085901,256.54866942313,12;  !- X,Y,Z ==> Vertex 10 {m}

  Shading:Building:Detailed,
    Shading Surface 89,      !- Name
    ,                        !- Transmittance Schedule Name
    ,                        !- Number of Vertices
    -41.1130564085901,256.54866942313,12,  !- X,Y,Z ==> Vertex 1 {m}
    -41.1130564085901,256.54866942313,0,  !- X,Y,Z ==> Vertex 2 {m}
    -53.9242441461615,257.770413217158,0,  !- X,Y,Z ==> Vertex 3 {m}
    -53.9242441461615,257.770413217158,12;  !- X,Y,Z ==> Vertex 4 {m}

  Shading:Building:Detailed,
    Shading Surface 90,      !- Name
    ,                        !- Transmittance Schedule Name
    ,                        !- Number of Vertices
    -54.8454571141959,238.334920016547,12,  !- X,Y,Z ==> Vertex 1 {m}
    -54.8454571141959,238.334920016547,0,  !- X,Y,Z ==> Vertex 2 {m}
    -42.9553035111803,237.224240022426,0,  !- X,Y,Z ==> Vertex 3 {m}
    -42.9553035111803,237.224240022426,12;  !- X,Y,Z ==> Vertex 4 {m}

  Shading:Building:Detailed,
    Shading Surface 91,      !- Name
    ,                        !- Transmittance Schedule Name
    ,                        !- Number of Vertices
    -42.9553035111803,237.224240022426,12,  !- X,Y,Z ==> Vertex 1 {m}
    -42.9553035111803,237.224240022426,0,  !- X,Y,Z ==> Vertex 2 {m}
    -41.1130564085901,256.54866942313,0,  !- X,Y,Z ==> Vertex 3 {m}
    -41.1130564085901,256.54866942313,12;  !- X,Y,Z ==> Vertex 4 {m}

  Shading:Building:Detailed,
    Shading Surface 92,      !- Name
    ,                        !- Transmittance Schedule Name
    ,                        !- Number of Vertices
    -57.5251540119186,210.014641654387,12,  !- X,Y,Z ==> Vertex 1 {m}
    -57.5251540119186,210.014641654387,0,  !- X,Y,Z ==> Vertex 2 {m}
    -54.8454571141959,238.334920016547,0,  !- X,Y,Z ==> Vertex 3 {m}