  ConvergenceLimits,
    0,                       !- Minimum System Timestep {minutes}
    25;                      !- Maximum HVAC Iterations

  Version,23.1;

  Timestep,1;

  LifeCycleCost:Parameters,
    Life Cycle Cost Parameters,  !- Name
    EndOfYear,               !- Discounting Convention
    ConstantDollar,          !- Inflation Approach
    0.03,                    !- Real Discount Rate
    ,                        !- Nominal Discount Rate
    ,                        !- Inflation
    ,                        !- Base Date Month
    2011,                    !- Base Date Year
    ,                        !- Service Date Month
    2011,                    !- Service Date Year
    25,                      !- Length of Study Period in Years
    ,                        !- Tax rate
    None;                    !- Depreciation Method

  LifeCycleCost:UsePriceEscalation,
    U.S. Avg  Commercial-Electricity,  !- LCC Price Escalation Name
    Electricity,             !- Resource
    2011,                    !- Escalation Start Year
    January,                 !- Escalation Start Month
    0.9838,                  !- Year 1 Escalation
    0.9730,                  !- Year 2 Escalation
    0.9632,                  !- Year 3 Escalation
    0.9611,                  !- Year 4 Escalation
    0.9571,                  !- Year 5 Escalation
    0.9553,                  !- Year 6 Escalation
    0.9539,                  !- Year 7 Escalation
    0.9521,                  !- Year 8 Escalation
    0.9546,                  !- Year 9 Escalation
    0.9550,                  !- <none>
    0.9553,                  !- <none>
    0.9564,                  !- <none>
    0.9575,                  !- <none>
    0.9596,                  !- <none>
    0.9618,                  !- <none>
    0.9614,                  !- <none>
    0.9618,                  !- <none>
    0.9618,                  !- <none>
    0.9593,                  !- <none>
    0.9589,                  !- <none>
    0.9607,                  !- <none>
    0.9625,                  !- <none>
    0.9650,                  !- <none>
    0.9708,                  !- <none>
    0.9751,                  !- <none>
    0.9762,                  !- <none>
    0.9766,                  !- <none>
    0.9766,                  !- <none>
    0.9769,                  !- <none>
    0.9773;                  !- <none>

  LifeCycleCost:UsePriceEscalation,
    U.S. Avg  Commercial-Distillate Oil,  !- LCC Price Escalation Name
    FuelOilNo1,              !- Resource
    2011,                    !- Escalation Start Year
    January,                 !- Escalation Start Month
    0.9714,                  !- Year 1 Escalation
    0.9730,                  !- Year 2 Escalation
    0.9942,                  !- Year 3 Escalation
    1.0164,                  !- Year 4 Escalation
    1.0541,                  !- Year 5 Escalation
    1.0928,                  !- Year 6 Escalation
    1.1267,                  !- Year 7 Escalation
    1.1580,                  !- Year 8 Escalation
    1.1792,                  !- Year 9 Escalation
    1.1967,                  !- <none>
    1.2200,                  !- <none>
    1.2333,                  !- <none>
    1.2566,                  !- <none>
    1.2709,                  !- <none>
    1.2826,                  !- <none>
    1.2985,                  !- <none>
    1.3102,                  !- <none>
    1.3250,                  !- <none>
    1.3261,                  !- <none>
    1.3282,                  !- <none>
    1.3324,                  !- <none>
    1.3356,                  !- <none>
    1.3431,                  !- <none>
    1.3510,                  !- <none>
    1.3568,                  !- <none>
    1.3606,                  !- <none>
    1.3637,                  !- <none>
    1.3674,                  !- <none>
    1.3706,                  !- <none>
    1.3743;                  !- <none>

  LifeCycleCost:UsePriceEscalation,
    U.S. Avg  Commercial-Residual Oil,  !- LCC Price Escalation Name
    FuelOilNo2,              !- Resource
    2011,                    !- Escalation Start Year
    January,                 !- Escalation Start Month
    0.8469,                  !- Year 1 Escalation
    0.8257,                  !- Year 2 Escalation
    0.8681,                  !- Year 3 Escalation
    0.8988,                  !- Year 4 Escalation
    0.9289,                  !- Year 5 Escalation
    0.9604,                  !- Year 6 Escalation
    0.9897,                  !- Year 7 Escalation
    1.0075,                  !- Year 8 Escalation
    1.0314,                  !- Year 9 Escalation
    1.0554,                  !- <none>
    1.0861,                  !- <none>
    1.1278,                  !- <none>
    1.1497,                  !- <none>
    1.1620,                  !- <none>
    1.1743,                  !- <none>
    1.1852,                  !- <none>
    1.1948,                  !- <none>
    1.2037,                  !- <none>
    1.2071,                  !- <none>
    1.2119,                  !- <none>
    1.2139,                  !- <none>
    1.2194,                  !- <none>
    1.2276,                  !- <none>
    1.2365,                  !- <none>
    1.2420,                  !- <none>
    1.2461,                  !- <none>
    1.2509,                  !- <none>
    1.2550,                  !- <none>
    1.2591,                  !- <none>
    1.2638;                  !- <none>

  LifeCycleCost:UsePriceEscalation,
    U.S. Avg  Commercial-Natural gas,  !- LCC Price Escalation Name
    NaturalGas,              !- Resource
    2011,                    !- Escalation Start Year
    January,                 !- Escalation Start Month
    0.9823,                  !- Year 1 Escalation
    0.9557,                  !- Year 2 Escalation
    0.9279,                  !- Year 3 Escalation
    0.9257,                  !- Year 4 Escalation
    0.9346,                  !- Year 5 Escalation
    0.9412,                  !- Year 6 Escalation
    0.9512,                  !- Year 7 Escalation
    0.9645,                  !- Year 8 Escalation
    0.9856,                  !- Year 9 Escalation
    1.0067,                  !- <none>
    1.0222,                  !- <none>
    1.0410,                  !- <none>
    1.0610,                  !- <none>
    1.0787,                  !- <none>
    1.0942,                  !- <none>
    1.1098,                  !- <none>
    1.1220,                  !- <none>
    1.1308,                  !- <none>
    1.1386,                  !- <none>
    1.1486,                  !- <none>
    1.1619,                  !- <none>
    1.1763,                  !- <none>
    1.1918,                  !- <none>
    1.2118,                  !- <none>
    1.2284,                  !- <none>
    1.2439,                  !- <none>
    1.2605,                  !- <none>
    1.2772,                  !- <none>
    1.2938,                  !- <none>
    1.3115;                  !- <none>

  LifeCycleCost:UsePriceEscalation,
    U.S. Avg  Commercial-Coal,  !- LCC Price Escalation Name
    Coal,                    !- Resource
    2011,                    !- Escalation Start Year
    January,                 !- Escalation Start Month
    0.9970,                  !- Year 1 Escalation
    1.0089,                  !- Year 2 Escalation
    1.0089,                  !- Year 3 Escalation
    0.9941,                  !- Year 4 Escalation
    0.9941,                  !- Year 5 Escalation
    1.0000,                  !- Year 6 Escalation
    1.0030,                  !- Year 7 Escalation
    1.0059,                  !- Year 8 Escalation
    1.0089,                  !- Year 9 Escalation
    1.0119,                  !- <none>
    1.0148,                  !- <none>
    1.0178,                  !- <none>
    1.0208,                  !- <none>
    1.0267,                  !- <none>
    1.0297,                  !- <none>
    1.0356,                  !- <none>
    1.0415,                  !- <none>
    1.0534,                  !- <none>
    1.0564,                  !- <none>
    1.0593,                  !- <none>
    1.0653,                  !- <none>
    1.0712,                  !- <none>
    1.0742,                  !- <none>
    1.0801,                  !- <none>
    1.0831,                  !- <none>
    1.0831,                  !- <none>
    1.0861,                  !- <none>
    1.0890,                  !- <none>
    1.0920,                  !- <none>
    1.0950;                  !- <none>

  Building,
    bld_1,                   !- Name
    ,                        !- North Axis {deg}
    City,                    !- Terrain
    ,                        !- Loads Convergence Tolerance Value {W}
    ,                        !- Temperature Convergence Tolerance Value {deltaC}
    ,                        !- Solar Distribution
    ,                        !- Maximum Number of Warmup Days
    ;                        !- Minimum Number of Warmup Days

  Shading:Building:Detailed,
    Shading Surface 39,      !- Name
    ,                        !- Transmittance Schedule Name
    ,                        !- Number of Vertices
    -235.880450487942,-134.378764329899,12,  !- X,Y,Z ==> Vertex 1 {m}
    -235.880450487942,-134.378764329899,0,  !- X,Y,Z ==> Vertex 2 {m}
    -235.294059967291,-126.715644522365,0,  !- X,Y,Z ==> Vertex 3 {m}
    -235.294059967291,-126.715644522365,12;  !- X,Y,Z ==> Vertex 4 {m}

  Shading:Building:Detailed,
    Shading Surface 40,      !- Name
    ,                        !- Transmittance Schedule Name
    ,                        !- Number of Vertices
    -242.162183433885,-183.467067956801,12,  !- X,Y,Z ==> Vertex 1 {m}
    -242.162183433885,-183.467067956801,0,  !- X,Y,Z ==> Vertex 2 {m}
    -241.99461688967,-180.579514218546,0,  !- X,Y,Z ==> Vertex 3 {m}
    -241.99461688967,-180.579514218546,12;  !- X,Y,Z ==> Vertex 4 {m}

  Shading:Building:Detailed,
    Shading Surface 41,      !- Name
    ,                        !- Transmittance Schedule Name
    ,                        !- Number of Vertices
    -256.142868475323,-95.7292033874117,12,  !- X,Y,Z ==> Vertex 1 {m}
    -256.142868475323,-95.7292033874117,0,  !- X,Y,Z ==> Vertex 2 {m}
    -257.650820114161,-116.497367678753,0,  !- X,Y,Z ==> Vertex 3 {m}
    -257.650820114161,-116.497367678753,12;  !- X,Y,Z ==> Vertex 4 {m}

  Shading:Building:Detailed,
    Shading Surface 42,      !- Name
    ,                        !- Transmittance Schedule Name
    ,                        !- Number of Vertices
    -256.142868475323,-95.7292033874117,12,  !- X,Y,Z ==> Vertex 1 {m}
    -257.650820114161,-116.497367678753,12,  !- X,Y,Z ==> Vertex 2 {m}
    -260.079146206676,-117.274701072215,12,  !- X,Y,Z ==> Vertex 3 {m}
    -259.074443883572,-120.384416538431,12,  !- X,Y,Z ==> Vertex 4 {m}
    -263.765803212506,-181.800416328092,12,  !- X,Y,Z ==> Vertex 5 {m}
    -242.162183433885,-183.467067956801,12,  !- X,Y,Z ==> Vertex 6 {m}
    -241.99461688967,-180.579514218546,12,  !- X,Y,Z ==> Vertex 7 {m}
    -224.410270701246,-181.801738226701,12,  !- X,Y,Z ==> Vertex 8 {m}
    -223.740115755421,-172.916960914862,12,  !- X,Y,Z ==> Vertex 9 {m}
    -232.698875978653,-145.040625108284,12,  !- X,Y,Z ==> Vertex 10 {m}
    -239.313903099657,-144.485110371721,12,  !- X,Y,Z ==> Vertex 11 {m}
    -238.559951329298,-134.156556896892,12,  !- X,Y,Z ==> Vertex 12 {m}
    -235.880450487942,-134.378764329899,12,  !- X,Y,Z ==> Vertex 13 {m}
    -235.294059967291,-126.715644522365,12,  !- X,Y,Z ==> Vertex 14 {m}
    -228.678964839009,-124.605716007943,12,  !- X,Y,Z ==> Vertex 15 {m}
    -228.343904633029,-120.718627095926,12,  !- X,Y,Z ==> Vertex 16 {m}
    -223.73846423665,-119.274990549209,12,  !- X,Y,Z ==> Vertex 17 {m}
    -223.487154991167,-115.832138742234,12,  !- X,Y,Z ==> Vertex 18 {m}
    -220.975098888653,-115.054795664804,12,  !- X,Y,Z ==> Vertex 19 {m}
    -220.137418394802,-103.948822434532,12,  !- X,Y,Z ==> Vertex 20 {m}
    -221.979399507339,-98.2847070132189,12;  !- X,Y,Z ==> Vertex 21 {m}

  Shading:Building:Detailed,
    Shading Surface 43,      !- Name
    ,                        !- Transmittance Schedule Name
    ,                        !- Number of Vertices
    -235.294059967291,-126.715644522365,12,  !- X,Y,Z ==> Vertex 1 {m}
    -235.294059967291,-126.715644522365,0,  !- X,Y,Z ==> Vertex 2 {m}
    -228.678964839009,-124.605716007943,0,  !- X,Y,Z ==> Vertex 3 {m}
    -228.678964839009,-124.605716007943,12;  !- X,Y,Z ==> Vertex 4 {m}

  Shading:Building:Detailed,
    Shading Surface 44,      !- Name
    ,                        !- Transmittance Schedule Name
    ,                        !- Number of Vertices
    -220.975098888653,-115.054795664804,12,  !- X,Y,Z ==> Vertex 1 {m}
    -220.975098888653,-115.054795664804,0,  !- X,Y,Z ==> Vertex 2 {m}
    -220.137418394802,-103.948822434532,0,  !- X,Y,Z ==> Vertex 3 {m}
    -220.137418394802,-103.948822434532,12;  !- X,Y,Z ==> Vertex 4 {m}

  Shading:Building:Detailed,
    Shading Surface 45,      !- Name
    ,                        !- Transmittance Schedule Name
    ,                        !- Number of Vertices
    -238.559951329298,-134.156556896892,12,  !- X,Y,Z ==> Vertex 1 {m}
    -238.559951329298,-134.156556896892,0,  !- X,Y,Z ==> Vertex 2 {m}
    -235.880450487942,-134.378764329899,0,  !- X,Y,Z ==> Vertex 3 {m}
    -235.880450487942,-134.378764329899,12;  !- X,Y,Z ==> Vertex 4 {m}

  Shading:Building:Detailed,
    Shading Surface 46,      !- Name
    ,                        !- Transmittance Schedule Name
    ,                        !- Number of Vertices
    -223.487154991167,-115.832138742234,12,  !- X,Y,Z ==> Vertex 1 {m}
    -223.487154991167,-115.832138742234,0,  !- X,Y,Z ==> Vertex 2 {m}
    -220.975098888653,-115.054795664804,0,  !- X,Y,Z ==> Vertex 3 {m}
    -220.975098888653,-115.054795664804,12;  !- X,Y,Z ==> Vertex 4 {m}

  Shading:Building:Detailed,
    Shading Surface 47,      !- Name
    ,                        !- Transmittance Schedule Name
    ,                        !- Number of Vertices
    -232.698875978653,-145.040625108284,12,  !- X,Y,Z ==> Vertex 1 {m}
    -232.698875978653,-145.040625108284,0,  !- X,Y,Z ==> Vertex 2 {m}
    -239.313903099657,-144.485110371721,0,  !- X,Y,Z ==> Vertex 3 {m}
    -239.313903099657,-144.485110371721,12;  !- X,Y,Z ==> Vertex 4 {m}

  Shading:Building:Detailed,
    Shading Surface 48,      !- Name
    ,                        !- Transmittance Schedule Name
    ,                        !- Number of Vertices
    -263.765803212506,-181.800416328092,12,  !- X,Y,Z ==> Vertex 1 {m}
    -263.765803212506,-181.800416328092,0,  !- X,Y,Z ==> Vertex 2 {m}
    -242.162183433885,-183.467067956801,0,  !- X,Y,Z ==> Vertex 3 {m}
    -242.162183433885,-183.467067956801,12;  !- X,Y,Z ==> Vertex 4 {m}

  Shading:Building:Detailed,
    Shading Surface 49,      !- Name
    ,                        !- Transmittance Schedule Name
    ,                        !- Number of Vertices
    -223.73846423665,-119.274990549209,12,  !- X,Y,Z ==> Vertex 1 {m}
    -223.73846423665,-119.274990549209,0,  !- X,Y,Z ==> Vertex 2 {m}
    -223.487154991167,-115.832138742234,0,  !- X,Y,Z ==> Vertex 3 {m}
    -223.487154991167,-115.832138742234,12;  !- X,Y,Z ==> Vertex 4 {m}

  Shading:Building:Detailed,
    Shading Surface 50,      !- Name
    ,                        !- Transmittance Schedule Name
    ,                        !- Number of Vertices
    -257.650820114161,-116.497367678753,12,  !- X,Y,Z ==> Vertex 1 {m}
    -257.650820114161,-116.497367678753,0,  !- X,Y,Z ==> Vertex 2 {m}
    -260.079146206676,-117.274701072215,0,  !- X,Y,Z ==> Vertex 3 {m}
    -260.079146206676,-117.274701072215,12;  !- X,Y,Z ==> Vertex 4 {m}

  Shading:Building:Detailed,
    Shading Surface 51,      !- Name
    ,                        !- Transmittance Schedule Name
    ,                        !- Number of Vertices
    -239.313903099657,-144.485110371721,12,  !- X,Y,Z ==> Vertex 1 {m}
    -239.313903099657,-144.485110371721,0,  !- X,Y,Z ==> Vertex 2 {m}
    -238.559951329298,-134.156556896892,0,  !- X,Y,Z ==> Vertex 3 {m}
    -238.559951329298,-134.156556896892,12;  !- X,Y,Z ==> Vertex 4 {m}

  Shading:Building:Detailed,
    Shading Surface 52,      !- Name
    ,                        !- Transmittance Schedule Name
    ,                        !- Number of Vertices
    -221.979399507339,-98.2847070132189,0,  !- X,Y,Z ==> Vertex 1 {m}
    -220.137418394802,-103.948822434532,0,  !- X,Y,Z ==> Vertex 2 {m}
    -220.975098888653,-115.054795664804,0,  !- X,Y,Z ==> Vertex 3 {m}
    -223.487154991167,-115.832138742234,0,  !- X,Y,Z ==> Vertex 4 {m}
    -223.73846423665,-119.274990549209,0,  !- X,Y,Z ==> Vertex 5 {m}
    -228.343904633029,-120.718627095926,0,  !- X,Y,Z ==> Vertex 6 {m}
    -228.678964839009,-124.605716007943,0,  !- X,Y,Z ==> Vertex 7 {m}
    -235.294059967291,-126.715644522365,0,  !- X,Y,Z ==> Vertex 8 {m}
    -235.880450487942,-134.378764329899,0,  !- X,Y,Z ==> Vertex 9 {m}
    -238.559951329298,-134.156556896892,0,  !- X,Y,Z ==> Vertex 10 {m}
    -239.313903099657,-144.485110371721,0,  !- X,Y,Z ==> Vertex 11 {m}
    -232.698875978653,-145.040625108284,0,  !- X,Y,Z ==> Vertex 12 {m}
    -223.740115755421,-172.916960914862,0,  !- X,Y,Z ==> Vertex 13 {m}
    -224.410270701246,-181.801738226701,0,  !- X,Y,Z ==> Vertex 14 {m}
    -241.99461688967,-180.579514218546,0,  !- X,Y,Z ==> Vertex 15 {m}
    -242.162183433885,-183.467067956801,0,  !- X,Y,Z ==> Vertex 16 {m}
    -263.765803212506,-181.800416328092,0,  !- X,Y,Z ==> Vertex 17 {m}
    -259.074443883572,-120.384416538431,0,  !- X,Y,Z ==> Vertex 18 {m}
    -260.079146206676,-117.274701072215,0,  !- X,Y,Z ==> Vertex 19 {m}
    -257.650820114161,-116.497367678753,0,  !- X,Y,Z ==> Vertex 20 {m}
    -256.142868475323,-95.7292033874117,0;  !- X,Y,Z ==> Vertex 21 {m}

  Shading:Building:Detailed,
    Shading Surface 53,      !- Name
    ,                        !- Transmittance Schedule Name
    ,                        !- Number of Vertices
    -241.99461688967,-180.579514218546,12,  !- X,Y,Z ==> Vertex 1 {m}
    -241.99461688967,-180.579514218546,0,  !- X,Y,Z ==> Vertex 2 {m}
    -224.410270701246,-181.801738226701,0,  !- X,Y,Z ==> Vertex 3 {m}
    -224.410270701246,-181.801738226701,12;  !- X,Y,Z ==> Vertex 4 {m}

  Shading:Building:Detailed,
    Shading Surface 54,      !- Name
    ,                        !- Transmittance Schedule Name
    ,                        !- Number of Vertices
    -259.074443883572,-120.384416538431,12,  !- X,Y,Z ==> Vertex 1 {m}
    -259.074443883572,-120.384416538431,0,  !- X,Y,Z ==> Vertex 2 {m}
    -263.765803212506,-181.800416328092,0,  !- X,Y,Z ==> Vertex 3 {m}
    -263.765803212506,-181.800416328092,12;  !- X,Y,Z ==> Vertex 4 {m}

  Shading:Building:Detailed,
    Shading Surface 55,      !- Name
    ,                        !- Transmittance Schedule Name
    ,                        !- Number of Vertices
    -228.343904633029,-120.718627095926,12,  !- X,Y,Z ==> Vertex 1 {m}
    -228.343904633029,-120.718627095926,0,  !- X,Y,Z ==> Vertex 2 {m}
    -223.73846423665,-119.274990549209,0,  !- X,Y,Z ==> Vertex 3 {m}
    -223.73846423665,-119.274990549209,12;  !- X,Y,Z ==> Vertex 4 {m}

  Shading:Building:Detailed,
    Shading Surface 56,      !- Name
    ,                        !- Transmittance Schedule Name
    ,                        !- Number of Vertices
    -228.678964839009,-124.605716007943,12,  !- X,Y,Z ==> Vertex 1 {m}
    -228.678964839009,-124.605716007943,0,  !- X,Y,Z ==> Vertex 2 {m}
    -228.343904633029,-120.718627095926,0,  !- X,Y,Z ==> Vertex 3 {m}
    -228.343904633029,-120.718627095926,12;  !- X,Y,Z ==> Vertex 4 {m}

  Shading:Building:Detailed,
    Shading Surface 57,      !- Name
    ,                        !- Transmittance Schedule Name
    ,                        !- Number of Vertices
    -223.740115755421,-172.916960914862,12,  !- X,Y,Z ==> Vertex 1 {m}
    -223.740115755421,-172.916960914862,0,  !- X,Y,Z ==> Vertex 2 {m}
    -232.698875978653,-145.040625108284,0,  !- X,Y,Z ==> Vertex 3 {m}
    -232.698875978653,-145.040625108284,12;  !- X,Y,Z ==> Vertex 4 {m}

  Shading:Building:Detailed,
    Shading Surface 58,      !- Name
    ,                        !- Transmittance Schedule Name
    ,                        !- Number of Vertices
    -224.410270701246,-181.801738226701,12,  !- X,Y,Z ==> Vertex 1 {m}
    -224.410270701246,-181.801738226701,0,  !- X,Y,Z ==> Vertex 2 {m}
    -223.740115755421,-172.916960914862,0,  !- X,Y,Z ==> Vertex 3 {m}
    -223.740115755421,-172.916960914862,12;  !- X,Y,Z ==> Vertex 4 {m}

  Shading:Building:Detailed,
    Shading Surface 59,      !- Name
    ,                        !- Transmittance Schedule Name
    ,                        !- Number of Vertices
    -260.079146206676,-117.274701072215,12,  !- X,Y,Z ==> Vertex 1 {m}
    -260.079146206676,-117.274701072215,0,  !- X,Y,Z ==> Vertex 2 {m}
    -259.074443883572,-120.384416538431,0,  !- X,Y,Z ==> Vertex 3 {m}
    -259.074443883572,-120.384416538431,12;  !- X,Y,Z ==> Vertex 4 {m}

  Shading:Building:Detailed,
    Shading Surface 60,      !- Name
    ,                        !- Transmittance Schedule Name
    ,                        !- Number of Vertices
    -220.137418394802,-103.948822434532,12,  !- X,Y,Z ==> Vertex 1 {m}
    -220.137418394802,-103.948822434532,0,  !- X,Y,Z ==> Vertex 2 {m}
    -221.979399507339,-98.2847070132189,0,  !- X,Y,Z ==> Vertex 3 {m}
    -221.979399507339,-98.2847070132189,12;  !- X,Y,Z ==> Vertex 4 {m}

  Shading:Building:Detailed,
    Shading Surface 61,      !- Name
    ,                        !- Transmittance Schedule Name
    ,                        !- Number of Vertices
    -221.979399507339,-98.2847070132189,12,  !- X,Y,Z ==> Vertex 1 {m}
    -221.979399507339,-98.2847070132189,0,  !- X,Y,Z ==> Vertex 2 {m}
    -256.142868475323,-95.7292033874117,0,  !- X,Y,Z ==> Vertex 3 {m}
    -256.142868475323,-95.7292033874117,12;  !- X,Y,Z ==> Vertex 4 {m}

  Shading:Building:Detailed,
    Shading Surface 62,      !- Name
    ,                        !- Transmittance Schedule Name
    ,                        !- Number of Vertices
    -250.363269867737,-39.421987908437,12,  !- X,Y,Z ==> Vertex 1 {m}
    -250.363269867737,-39.421987908437,0,  !- X,Y,Z ==> Vertex 2 {m}
    -248.520471218405,-20.0976110826349,0,  !- X,Y,Z ==> Vertex 3 {m}
    -248.520471218405,-20.0976110826349,12;  !- X,Y,Z ==> Vertex 4 {m}

  Shading:Building:Detailed,
    Shading Surface 63,      !- Name
    ,                        !- Transmittance Schedule Name
    ,                        !- Number of Vertices
    -264.933896951584,-66.6311704281725,12,  !- X,Y,Z ==> Vertex 1 {m}
    -264.933896951584,-66.6311704281725,0,  !- X,Y,Z ==> Vertex 2 {m}
    -262.253391756227,-38.3109685450272,0,  !- X,Y,Z ==> Vertex 3 {m}
    -262.253391756227,-38.3109685450272,12;  !- X,Y,Z ==> Vertex 4 {m}

  Shading:Building:Detailed,
    Shading Surface 64,      !- Name
    ,                        !- Transmittance Schedule Name
    ,                        !- Number of Vertices
    -249.778119995636,-68.075487089891,12,  !- X,Y,Z ==> Vertex 1 {m}
    -249.778119995636,-68.075487089891,0,  !- X,Y,Z ==> Vertex 2 {m}
    -264.933896951584,-66.6311704281725,0,  !- X,Y,Z ==> Vertex 3 {m}
    -264.933896951584,-66.6311704281725,12;  !- X,Y,Z ==> Vertex 4 {m}

  Shading:Building:Detailed,
    Shading Surface 65,      !- Name
    ,                        !- Transmittance Schedule Name
    ,                        !- Number of Vertices
    -275.063990076605,-21.6514948624782,12,  !- X,Y,Z ==> Vertex 1 {m}
    -275.063990076605,-21.6514948624782,0,  !- X,Y,Z ==> Vertex 2 {m}
    -280.50889863524,-79.7356650719131,0,  !- X,Y,Z ==> Vertex 3 {m}
    -280.50889863524,-79.7356650719131,12;  !- X,Y,Z ==> Vertex 4 {m}

  Shading:Building:Detailed,
    Shading Surface 66,      !- Name
    ,                        !- Transmittance Schedule Name
    ,                        !- Number of Vertices
    -248.520471218405,-20.0976110826349,0,  !- X,Y,Z ==> Vertex 1 {m}
    -250.363269867737,-39.421987908437,0,  !- X,Y,Z ==> Vertex 2 {m}
    -262.253391756227,-38.3109685450272,0,  !- X,Y,Z ==> Vertex 3 {m}
    -264.933896951584,-66.6311704281725,0,  !- X,Y,Z ==> Vertex 4 {m}
    -249.778119995636,-68.075487089891,0,  !- X,Y,Z ==> Vertex 5 {m}
    -251.118360751799,-82.5132399287352,0,  !- X,Y,Z ==> Vertex 6 {m}
    -280.50889863524,-79.7356650719131,0,  !- X,Y,Z ==> Vertex 7 {m}
    -275.063990076605,-21.6514948624782,0,  !- X,Y,Z ==> Vertex 8 {m}
    -261.750434574354,-22.8736466315792,0,  !- X,Y,Z ==> Vertex 9 {m}
    -261.331624070403,-18.875501631074,0;  !- X,Y,Z ==> Vertex 10 {m}

  Shading:Building:Detailed,
    Shading Surface 67,      !- Name
    ,                        !- Transmittance Schedule Name
    ,                        !- Number of Vertices
    -261.750434574354,-22.8736466315792,12,  !- X,Y,Z ==> Vertex 1 {m}
    -261.750434574354,-22.8736466315792,0,  !- X,Y,Z ==> Vertex 2 {m}
    -275.063990076605,-21.6514948624782,0,  !- X,Y,Z ==> Vertex 3 {m}
    -275.063990076605,-21.6514948624782,12;  !- X,Y,Z ==> Vertex 4 {m}

  Shading:Building:Detailed,
    Shading Surface 68,      !- Name
    ,                        !- Transmittance Schedule Name
    ,                        !- Number of Vertices
    -251.118360751799,-82.5132399287352,12,  !- X,Y,Z ==> Vertex 1 {m}
    -251.118360751799,-82.5132399287352,0,  !- X,Y,Z ==> Vertex 2 {m}
    -249.778119995636,-68.075487089891,0,  !- X,Y,Z ==> Vertex 3 {m}
    -249.778119995636,-68.075487089891,12;  !- X,Y,Z ==> Vertex 4 {m}

  Shading:Building:Detailed,
    Shading Surface 69,      !- Name
    ,                        !- Transmittance Schedule Name
    ,                        !- Number of Vertices
    -261.331624070403,-18.875501631074,12,  !- X,Y,Z ==> Vertex 1 {m}
    -261.331624070403,-18.875501631074,0,  !- X,Y,Z ==> Vertex 2 {m}
    -261.750434574354,-22.8736466315792,0,  !- X,Y,Z ==> Vertex 3 {m}
    -261.750434574354,-22.8736466315792,12;  !- X,Y,Z ==> Vertex 4 {m}

  Shading:Building:Detailed,
    Shading Surface 70,      !- Name
    ,                        !- Transmittance Schedule Name
    ,                        !- Number of Vertices
    -261.331624070403,-18.875501631074,12,  !- X,Y,Z ==> Vertex 1 {m}
    -261.750434574354,-22.8736466315792,12,  !- X,Y,Z ==> Vertex 2 {m}
    -275.063990076605,-21.6514948624782,12,  !- X,Y,Z ==> Vertex 3 {m}
    -280.50889863524,-79.7356650719131,12,  !- X,Y,Z ==> Vertex 4 {m}
    -251.118360751799,-82.5132399287352,12,  !- X,Y,Z ==> Vertex 5 {m}
    -249.778119995636,-68.075487089891,12,  !- X,Y,Z ==> Vertex 6 {m}
    -264.933896951584,-66.6311704281725,12,  !- X,Y,Z ==> Vertex 7 {m}
    -262.253391756227,-38.3109685450272,12,  !- X,Y,Z ==> Vertex 8 {m}
    -250.363269867737,-39.421987908437,12,  !- X,Y,Z ==> Vertex 9 {m}
    -248.520471218405,-20.0976110826349,12;  !- X,Y,Z ==> Vertex 10 {m}

  Shading:Building:Detailed,
    Shading Surface 71,      !- Name
    ,                        !- Transmittance Schedule Name
    ,                        !- Number of Vertices
    -262.253391756227,-38.3109685450272,12,  !- X,Y,Z ==> Vertex 1 {m}
    -262.253391756227,-38.3109685450272,0,  !- X,Y,Z ==> Vertex 2 {m}
    -250.363269867737,-39.421987908437,0,  !- X,Y,Z ==> Vertex 3 {m}
    -250.363269867737,-39.421987908437,12;  !- X,Y,Z ==> Vertex 4 {m}

  Shading:Building:Detailed,
    Shading Surface 72,      !- Name
    ,                        !- Transmittance Schedule Name
    ,                        !- Number of Vertices
    -248.520471218405,-20.0976110826349,12,  !- X,Y,Z ==> Vertex 1 {m}
    -248.520471218405,-20.0976110826349,0,  !- X,Y,Z ==> Vertex 2 {m}
    -261.331624070403,-18.875501631074,0,  !- X,Y,Z ==> Vertex 3 {m}
    -261.331624070403,-18.875501631074,12;  !- X,Y,Z ==> Vertex 4 {m}

  Shading:Building:Detailed,
    Shading Surface 73,      !- Name
    ,                        !- Transmittance Schedule Name
    ,                        !- Number of Vertices
    -280.50889863524,-79.7356650719131,12,  !- X,Y,Z ==> Vertex 1 {m}
    -280.50889863524,-79.7356650719131,0,  !- X,Y,Z ==> Vertex 2 {m}
    -251.118360751799,-82.5132399287352,0,  !- X,Y,Z ==> Vertex 3 {m}
    -251.118360751799,-82.5132399287352,12;  !- X,Y,Z ==> Vertex 4 {m}

  Shading:Building:Detailed,
    Shading Surface 74,      !- Name
    ,                        !- Transmittance Schedule Name
    ,                        !- Number of Vertices
    190.911336677402,3.33430796009325,0,  !- X,Y,Z ==> Vertex 1 {m}
    190.325411904604,-4.55096780187962,0,  !- X,Y,Z ==> Vertex 2 {m}
    194.512077483599,-4.88403695732785,0,  !- X,Y,Z ==> Vertex 3 {m}
    193.758748722643,-14.9905174394258,0,  !- X,Y,Z ==> Vertex 4 {m}
    183.710738647839,-14.213358384578,0,  !- X,Y,Z ==> Vertex 5 {m}
    184.212974824436,-7.77186545529447,0,  !- X,Y,Z ==> Vertex 6 {m}
    167.047644269429,-6.43956026929147,0,  !- X,Y,Z ==> Vertex 7 {m}
    167.968441996371,5.11070153130676,0;  !- X,Y,Z ==> Vertex 8 {m}

  Shading:Building:Detailed,
    Shading Surface 75,      !- Name
    ,                        !- Transmittance Schedule Name
    ,                        !- Number of Vertices
    190.325411904604,-4.55096780187962,12,  !- X,Y,Z ==> Vertex 1 {m}
    190.325411904604,-4.55096780187962,0,  !- X,Y,Z ==> Vertex 2 {m}
    190.911336677402,3.33430796009325,0,  !- X,Y,Z ==> Vertex 3 {m}
    190.911336677402,3.33430796009325,12;  !- X,Y,Z ==> Vertex 4 {m}

  Shading:Building:Detailed,
    Shading Surface 76,      !- Name
    ,                        !- Transmittance Schedule Name
    ,                        !- Number of Vertices
    184.212974824436,-7.77186545529447,12,  !- X,Y,Z ==> Vertex 1 {m}
    184.212974824436,-7.77186545529447,0,  !- X,Y,Z ==> Vertex 2 {m}
    183.710738647839,-14.213358384578,0,  !- X,Y,Z ==> Vertex 3 {m}
    183.710738647839,-14.213358384578,12;  !- X,Y,Z ==> Vertex 4 {m}

  Shading:Building:Detailed,
    Shading Surface 77,      !- Name