
Version,
  22.1;                                   !- Version Identifier

Timestep,
  1;                                      !- Number of Timesteps per Hour

LifeCycleCost:Parameters,
  Life Cycle Cost Parameters,             !- Name
  EndOfYear,                              !- Discounting Convention
  ConstantDollar,                         !- Inflation Approach
  0.03,                                   !- Real Discount Rate
  ,                                       !- Nominal Discount Rate
  ,                                       !- Inflation
  ,                                       !- Base Date Month
  2011,                                   !- Base Date Year
  ,                                       !- Service Date Month
  2011,                                   !- Service Date Year
  25,                                     !- Length of Study Period in Years
  ,                                       !- Tax rate
  None;                                   !- Depreciation Method

LifeCycleCost:UsePriceEscalation,
  U.S. Avg  Commercial-Electricity,       !- Name
  Electricity,                            !- Resource
  2011,                                   !- Escalation Start Year
  January,                                !- Escalation Start Month
  0.9838,                                 !- Year Escalation 1
  0.9730,                                 !- Year Escalation 2
  0.9632,                                 !- Year Escalation 3
  0.9611,                                 !- Year Escalation 4
  0.9571,                                 !- Year Escalation 5
  0.9553,                                 !- Year Escalation 6
  0.9539,                                 !- Year Escalation 7
  0.9521,                                 !- Year Escalation 8
  0.9546,                                 !- Year Escalation 9
  0.9550,                                 !- Year Escalation 10
  0.9553,                                 !- Year Escalation 11
  0.9564,                                 !- Year Escalation 12
  0.9575,                                 !- Year Escalation 13
  0.9596,                                 !- Year Escalation 14
  0.9618,                                 !- Year Escalation 15
  0.9614,                                 !- Year Escalation 16
  0.9618,                                 !- Year Escalation 17
  0.9618,                                 !- Year Escalation 18
  0.9593,                                 !- Year Escalation 19
  0.9589,                                 !- Year Escalation 20
  0.9607,                                 !- Year Escalation 21
  0.9625,                                 !- Year Escalation 22
  0.9650,                                 !- Year Escalation 23
  0.9708,                                 !- Year Escalation 24
  0.9751,                                 !- Year Escalation 25
  0.9762,                                 !- Year Escalation 26
  0.9766,                                 !- Year Escalation 27
  0.9766,                                 !- Year Escalation 28
  0.9769,                                 !- Year Escalation 29
  0.9773;                                 !- Year Escalation 30

LifeCycleCost:UsePriceEscalation,
  U.S. Avg  Commercial-Distillate Oil,    !- Name
  FuelOilNo1,                             !- Resource
  2011,                                   !- Escalation Start Year
  January,                                !- Escalation Start Month
  0.9714,                                 !- Year Escalation 1
  0.9730,                                 !- Year Escalation 2
  0.9942,                                 !- Year Escalation 3
  1.0164,                                 !- Year Escalation 4
  1.0541,                                 !- Year Escalation 5
  1.0928,                                 !- Year Escalation 6
  1.1267,                                 !- Year Escalation 7
  1.1580,                                 !- Year Escalation 8
  1.1792,                                 !- Year Escalation 9
  1.1967,                                 !- Year Escalation 10
  1.2200,                                 !- Year Escalation 11
  1.2333,                                 !- Year Escalation 12
  1.2566,                                 !- Year Escalation 13
  1.2709,                                 !- Year Escalation 14
  1.2826,                                 !- Year Escalation 15
  1.2985,                                 !- Year Escalation 16
  1.3102,                                 !- Year Escalation 17
  1.3250,                                 !- Year Escalation 18
  1.3261,                                 !- Year Escalation 19
  1.3282,                                 !- Year Escalation 20
  1.3324,                                 !- Year Escalation 21
  1.3356,                                 !- Year Escalation 22
  1.3431,                                 !- Year Escalation 23
  1.3510,                                 !- Year Escalation 24
  1.3568,                                 !- Year Escalation 25
  1.3606,                                 !- Year Escalation 26
  1.3637,                                 !- Year Escalation 27
  1.3674,                                 !- Year Escalation 28
  1.3706,                                 !- Year Escalation 29
  1.3743;                                 !- Year Escalation 30

LifeCycleCost:UsePriceEscalation,
  U.S. Avg  Commercial-Residual Oil,      !- Name
  FuelOilNo2,                             !- Resource
  2011,                                   !- Escalation Start Year
  January,                                !- Escalation Start Month
  0.8469,                                 !- Year Escalation 1
  0.8257,                                 !- Year Escalation 2
  0.8681,                                 !- Year Escalation 3
  0.8988,                                 !- Year Escalation 4
  0.9289,                                 !- Year Escalation 5
  0.9604,                                 !- Year Escalation 6
  0.9897,                                 !- Year Escalation 7
  1.0075,                                 !- Year Escalation 8
  1.0314,                                 !- Year Escalation 9
  1.0554,                                 !- Year Escalation 10
  1.0861,                                 !- Year Escalation 11
  1.1278,                                 !- Year Escalation 12
  1.1497,                                 !- Year Escalation 13
  1.1620,                                 !- Year Escalation 14
  1.1743,                                 !- Year Escalation 15
  1.1852,                                 !- Year Escalation 16
  1.1948,                                 !- Year Escalation 17
  1.2037,                                 !- Year Escalation 18
  1.2071,                                 !- Year Escalation 19
  1.2119,                                 !- Year Escalation 20
  1.2139,                                 !- Year Escalation 21
  1.2194,                                 !- Year Escalation 22
  1.2276,                                 !- Year Escalation 23
  1.2365,                                 !- Year Escalation 24
  1.2420,                                 !- Year Escalation 25
  1.2461,                                 !- Year Escalation 26
  1.2509,                                 !- Year Escalation 27
  1.2550,                                 !- Year Escalation 28
  1.2591,                                 !- Year Escalation 29
  1.2638;                                 !- Year Escalation 30

LifeCycleCost:UsePriceEscalation,
  U.S. Avg  Commercial-Natural gas,       !- Name
  NaturalGas,                             !- Resource
  2011,                                   !- Escalation Start Year
  January,                                !- Escalation Start Month
  0.9823,                                 !- Year Escalation 1
  0.9557,                                 !- Year Escalation 2
  0.9279,                                 !- Year Escalation 3
  0.9257,                                 !- Year Escalation 4
  0.9346,                                 !- Year Escalation 5
  0.9412,                                 !- Year Escalation 6
  0.9512,                                 !- Year Escalation 7
  0.9645,                                 !- Year Escalation 8
  0.9856,                                 !- Year Escalation 9
  1.0067,                                 !- Year Escalation 10
  1.0222,                                 !- Year Escalation 11
  1.0410,                                 !- Year Escalation 12
  1.0610,                                 !- Year Escalation 13
  1.0787,                                 !- Year Escalation 14
  1.0942,                                 !- Year Escalation 15
  1.1098,                                 !- Year Escalation 16
  1.1220,                                 !- Year Escalation 17
  1.1308,                                 !- Year Escalation 18
  1.1386,                                 !- Year Escalation 19
  1.1486,                                 !- Year Escalation 20
  1.1619,                                 !- Year Escalation 21
  1.1763,                                 !- Year Escalation 22
  1.1918,                                 !- Year Escalation 23
  1.2118,                                 !- Year Escalation 24
  1.2284,                                 !- Year Escalation 25
  1.2439,                                 !- Year Escalation 26
  1.2605,                                 !- Year Escalation 27
  1.2772,                                 !- Year Escalation 28
  1.2938,                                 !- Year Escalation 29
  1.3115;                                 !- Year Escalation 30

LifeCycleCost:UsePriceEscalation,
  U.S. Avg  Commercial-Coal,              !- Name
  Coal,                                   !- Resource
  2011,                                   !- Escalation Start Year
  January,                                !- Escalation Start Month
  0.9970,                                 !- Year Escalation 1
  1.0089,                                 !- Year Escalation 2
  1.0089,                                 !- Year Escalation 3
  0.9941,                                 !- Year Escalation 4
  0.9941,                                 !- Year Escalation 5
  1.0000,                                 !- Year Escalation 6
  1.0030,                                 !- Year Escalation 7
  1.0059,                                 !- Year Escalation 8
  1.0089,                                 !- Year Escalation 9
  1.0119,                                 !- Year Escalation 10
  1.0148,                                 !- Year Escalation 11
  1.0178,                                 !- Year Escalation 12
  1.0208,                                 !- Year Escalation 13
  1.0267,                                 !- Year Escalation 14
  1.0297,                                 !- Year Escalation 15
  1.0356,                                 !- Year Escalation 16
  1.0415,                                 !- Year Escalation 17
  1.0534,                                 !- Year Escalation 18
  1.0564,                                 !- Year Escalation 19
  1.0593,                                 !- Year Escalation 20
  1.0653,                                 !- Year Escalation 21
  1.0712,                                 !- Year Escalation 22
  1.0742,                                 !- Year Escalation 23
  1.0801,                                 !- Year Escalation 24
  1.0831,                                 !- Year Escalation 25
  1.0831,                                 !- Year Escalation 26
  1.0861,                                 !- Year Escalation 27
  1.0890,                                 !- Year Escalation 28
  1.0920,                                 !- Year Escalation 29
  1.0950;                                 !- Year Escalation 30

Building,
  Restaurant 13,                          !- Name
  ,                                       !- North Axis {deg}
  City,                                   !- Terrain
  ,                                       !- Loads Convergence Tolerance Value {W}
  ,                                       !- Temperature Convergence Tolerance Value {deltaC}
  ,                                       !- Solar Distribution
  ,                                       !- Maximum Number of Warmup Days
  ;                                       !- Minimum Number of Warmup Days

Shading:Building:Detailed,
  Shading Surface 22,                     !- Name
  ,                                       !- Transmittance Schedule Name
  ,                                       !- Number of Vertices
  75.3445489930836, 5.21534559431565, 3,  !- X,Y,Z Vertex 1 {m}
  75.3445489930836, 5.21534559431565, 0,  !- X,Y,Z Vertex 2 {m}
  91.1002056254497, -42.5428863244011, 0, !- X,Y,Z Vertex 3 {m}
  91.1002056254497, -42.5428863244011, 3; !- X,Y,Z Vertex 4 {m}

Shading:Building:Detailed,
  Shading Surface 23,                     !- Name
  ,                                       !- Transmittance Schedule Name
  ,                                       !- Number of Vertices
  94.1002526612427, 11.3583062623915, 3,  !- X,Y,Z Vertex 1 {m}
  75.3445489930836, 5.21534559431565, 3,  !- X,Y,Z Vertex 2 {m}
  91.1002056254497, -42.5428863244011, 3, !- X,Y,Z Vertex 3 {m}
  109.856025168091, -36.3998405571113, 3; !- X,Y,Z Vertex 4 {m}

Shading:Building:Detailed,
  Shading Surface 24,                     !- Name
  ,                                       !- Transmittance Schedule Name
  ,                                       !- Number of Vertices
  109.856025168091, -36.3998405571113, 0, !- X,Y,Z Vertex 1 {m}
  91.1002056254497, -42.5428863244011, 0, !- X,Y,Z Vertex 2 {m}
  75.3445489930836, 5.21534559431565, 0,  !- X,Y,Z Vertex 3 {m}
  94.1002526612427, 11.3583062623915, 0;  !- X,Y,Z Vertex 4 {m}

Shading:Building:Detailed,
  Shading Surface 25,                     !- Name
  ,                                       !- Transmittance Schedule Name
  ,                                       !- Number of Vertices
  109.856025168091, -36.3998405571113, 3, !- X,Y,Z Vertex 1 {m}
  109.856025168091, -36.3998405571113, 0, !- X,Y,Z Vertex 2 {m}
  94.1002526612427, 11.3583062623915, 0,  !- X,Y,Z Vertex 3 {m}
  94.1002526612427, 11.3583062623915, 3;  !- X,Y,Z Vertex 4 {m}

Shading:Building:Detailed,
  Shading Surface 26,                     !- Name
  ,                                       !- Transmittance Schedule Name
  ,                                       !- Number of Vertices
  94.1002526612427, 11.3583062623915, 3,  !- X,Y,Z Vertex 1 {m}
  94.1002526612427, 11.3583062623915, 0,  !- X,Y,Z Vertex 2 {m}
  75.3445489930836, 5.21534559431565, 0,  !- X,Y,Z Vertex 3 {m}
  75.3445489930836, 5.21534559431565, 3;  !- X,Y,Z Vertex 4 {m}

Shading:Building:Detailed,
  Shading Surface 27,                     !- Name
  ,                                       !- Transmittance Schedule Name
  ,                                       !- Number of Vertices
  91.1002056254497, -42.5428863244011, 3, !- X,Y,Z Vertex 1 {m}
  91.1002056254497, -42.5428863244011, 0, !- X,Y,Z Vertex 2 {m}
  109.856025168091, -36.3998405571113, 0, !- X,Y,Z Vertex 3 {m}
  109.856025168091, -36.3998405571113, 3; !- X,Y,Z Vertex 4 {m}

Shading:Building:Detailed,
  Shading Surface 34,                     !- Name
  ,                                       !- Transmittance Schedule Name
  ,                                       !- Number of Vertices
  -65.4847571587595, 148.731995642041, 30, !- X,Y,Z Vertex 1 {m}
  -65.4847571587595, 148.731995642041, 0, !- X,Y,Z Vertex 2 {m}
  -73.3618519199259, 172.61066940563, 0,  !- X,Y,Z Vertex 3 {m}
  -73.3618519199259, 172.61066940563, 30; !- X,Y,Z Vertex 4 {m}

Shading:Building:Detailed,
  Shading Surface 35,                     !- Name
  ,                                       !- Transmittance Schedule Name
  ,                                       !- Number of Vertices
  -10.4706312029374, 116.708203346644, 30, !- X,Y,Z Vertex 1 {m}
  -25.0192599692046, 162.559796708346, 30, !- X,Y,Z Vertex 2 {m}
  -65.4847571587595, 148.731995642041, 30, !- X,Y,Z Vertex 3 {m}
  -73.3618519199259, 172.61066940563, 30, !- X,Y,Z Vertex 4 {m}
  -95.7641561121815, 165.273963913745, 30, !- X,Y,Z Vertex 5 {m}
  -72.2968970957209, 95.8846210730237, 30; !- X,Y,Z Vertex 6 {m}

Shading:Building:Detailed,
  Shading Surface 36,                     !- Name
  ,                                       !- Transmittance Schedule Name
  ,                                       !- Number of Vertices
  -72.2968970957209, 95.8846210730237, 30, !- X,Y,Z Vertex 1 {m}
  -72.2968970957209, 95.8846210730237, 0, !- X,Y,Z Vertex 2 {m}
  -10.4706312029374, 116.708203346644, 0, !- X,Y,Z Vertex 3 {m}
  -10.4706312029374, 116.708203346644, 30; !- X,Y,Z Vertex 4 {m}

Shading:Building:Detailed,
  Shading Surface 37,                     !- Name
  ,                                       !- Transmittance Schedule Name
  ,                                       !- Number of Vertices
  -95.7641561121815, 165.273963913745, 30, !- X,Y,Z Vertex 1 {m}
  -95.7641561121815, 165.273963913745, 0, !- X,Y,Z Vertex 2 {m}
  -72.2968970957209, 95.8846210730237, 0, !- X,Y,Z Vertex 3 {m}
  -72.2968970957209, 95.8846210730237, 30; !- X,Y,Z Vertex 4 {m}

Shading:Building:Detailed,
  Shading Surface 38,                     !- Name
  ,                                       !- Transmittance Schedule Name
  ,                                       !- Number of Vertices
  -72.2968970957209, 95.8846210730237, 0, !- X,Y,Z Vertex 1 {m}
  -95.7641561121815, 165.273963913745, 0, !- X,Y,Z Vertex 2 {m}
  -73.3618519199259, 172.61066940563, 0,  !- X,Y,Z Vertex 3 {m}
  -65.4847571587595, 148.731995642041, 0, !- X,Y,Z Vertex 4 {m}
  -25.0192599692046, 162.559796708346, 0, !- X,Y,Z Vertex 5 {m}
  -10.4706312029374, 116.708203346644, 0; !- X,Y,Z Vertex 6 {m}

Shading:Building:Detailed,
  Shading Surface 39,                     !- Name
  ,                                       !- Transmittance Schedule Name
  ,                                       !- Number of Vertices
  -73.3618519199259, 172.61066940563, 30, !- X,Y,Z Vertex 1 {m}
  -73.3618519199259, 172.61066940563, 0,  !- X,Y,Z Vertex 2 {m}
  -95.7641561121815, 165.273963913745, 0, !- X,Y,Z Vertex 3 {m}
  -95.7641561121815, 165.273963913745, 30; !- X,Y,Z Vertex 4 {m}

Shading:Building:Detailed,
  Shading Surface 40,                     !- Name
  ,                                       !- Transmittance Schedule Name
  ,                                       !- Number of Vertices
  -25.0192599692046, 162.559796708346, 30, !- X,Y,Z Vertex 1 {m}
  -25.0192599692046, 162.559796708346, 0, !- X,Y,Z Vertex 2 {m}
  -65.4847571587595, 148.731995642041, 0, !- X,Y,Z Vertex 3 {m}
  -65.4847571587595, 148.731995642041, 30; !- X,Y,Z Vertex 4 {m}

Shading:Building:Detailed,
  Shading Surface 41,                     !- Name
  ,                                       !- Transmittance Schedule Name
  ,                                       !- Number of Vertices
  -10.4706312029374, 116.708203346644, 30, !- X,Y,Z Vertex 1 {m}
  -10.4706312029374, 116.708203346644, 0, !- X,Y,Z Vertex 2 {m}
  -25.0192599692046, 162.559796708346, 0, !- X,Y,Z Vertex 3 {m}
  -25.0192599692046, 162.559796708346, 30; !- X,Y,Z Vertex 4 {m}

Shading:Building:Detailed,
  Shading Surface 42,                     !- Name
  ,                                       !- Transmittance Schedule Name
  ,                                       !- Number of Vertices
  -91.1529436749838, 277.420886569229, 0, !- X,Y,Z Vertex 1 {m}
  2.57511444021555, 308.275282689861, 0,  !- X,Y,Z Vertex 2 {m}
  17.1984438905596, 264.174803745446, 0,  !- X,Y,Z Vertex 3 {m}
  -91.1102269660176, 228.520480943902, 0, !- X,Y,Z Vertex 4 {m}
  -77.592634421002, 186.915654569837, 0,  !- X,Y,Z Vertex 5 {m}
  -100.155865591598, 179.212196175235, 0, !- X,Y,Z Vertex 6 {m}
  -139.826249844479, 298.803596718529, 0, !- X,Y,Z Vertex 7 {m}
  -101.814243591733, 311.316324541298, 0; !- X,Y,Z Vertex 8 {m}

Shading:Building:Detailed,
  Shading Surface 43,                     !- Name
  ,                                       !- Transmittance Schedule Name
  ,                                       !- Number of Vertices
  2.57511444021555, 308.275282689861, 9,  !- X,Y,Z Vertex 1 {m}
  2.57511444021555, 308.275282689861, 0,  !- X,Y,Z Vertex 2 {m}
  -91.1529436749838, 277.420886569229, 0, !- X,Y,Z Vertex 3 {m}
  -91.1529436749838, 277.420886569229, 9; !- X,Y,Z Vertex 4 {m}

Shading:Building:Detailed,
  Shading Surface 44,                     !- Name
  ,                                       !- Transmittance Schedule Name
  ,                                       !- Number of Vertices
  -91.1102269660176, 228.520480943902, 9, !- X,Y,Z Vertex 1 {m}
  -91.1102269660176, 228.520480943902, 0, !- X,Y,Z Vertex 2 {m}
  17.1984438905596, 264.174803745446, 0,  !- X,Y,Z Vertex 3 {m}
  17.1984438905596, 264.174803745446, 9;  !- X,Y,Z Vertex 4 {m}

Shading:Building:Detailed,
  Shading Surface 45,                     !- Name
  ,                                       !- Transmittance Schedule Name
  ,                                       !- Number of Vertices
  -77.592634421002, 186.915654569837, 9,  !- X,Y,Z Vertex 1 {m}
  -77.592634421002, 186.915654569837, 0,  !- X,Y,Z Vertex 2 {m}
  -91.1102269660176, 228.520480943902, 0, !- X,Y,Z Vertex 3 {m}
  -91.1102269660176, 228.520480943902, 9; !- X,Y,Z Vertex 4 {m}

Shading:Building:Detailed,
  Shading Surface 46,                     !- Name
  ,                                       !- Transmittance Schedule Name
  ,                                       !- Number of Vertices
  -100.155865591598, 179.212196175235, 9, !- X,Y,Z Vertex 1 {m}
  -100.155865591598, 179.212196175235, 0, !- X,Y,Z Vertex 2 {m}
  -77.592634421002, 186.915654569837, 0,  !- X,Y,Z Vertex 3 {m}
  -77.592634421002, 186.915654569837, 9;  !- X,Y,Z Vertex 4 {m}

Shading:Building:Detailed,
  Shading Surface 47,                     !- Name
  ,                                       !- Transmittance Schedule Name
  ,                                       !- Number of Vertices
  -139.826249844479, 298.803596718529, 9, !- X,Y,Z Vertex 1 {m}
  -139.826249844479, 298.803596718529, 0, !- X,Y,Z Vertex 2 {m}
  -100.155865591598, 179.212196175235, 0, !- X,Y,Z Vertex 3 {m}
  -100.155865591598, 179.212196175235, 9; !- X,Y,Z Vertex 4 {m}

Shading:Building:Detailed,
  Shading Surface 48,                     !- Name
  ,                                       !- Transmittance Schedule Name
  ,                                       !- Number of Vertices
  -101.814243591733, 311.316324541298, 9, !- X,Y,Z Vertex 1 {m}
  -101.814243591733, 311.316324541298, 0, !- X,Y,Z Vertex 2 {m}
  -139.826249844479, 298.803596718529, 0, !- X,Y,Z Vertex 3 {m}
  -139.826249844479, 298.803596718529, 9; !- X,Y,Z Vertex 4 {m}

Shading:Building:Detailed,
  Shading Surface 49,                     !- Name
  ,                                       !- Transmittance Schedule Name
  ,                                       !- Number of Vertices
  17.1984438905596, 264.174803745446, 9,  !- X,Y,Z Vertex 1 {m}
  17.1984438905596, 264.174803745446, 0,  !- X,Y,Z Vertex 2 {m}
  2.57511444021555, 308.275282689861, 0,  !- X,Y,Z Vertex 3 {m}
  2.57511444021555, 308.275282689861, 9;  !- X,Y,Z Vertex 4 {m}

Shading:Building:Detailed,
  Shading Surface 50,                     !- Name
  ,                                       !- Transmittance Schedule Name
  ,                                       !- Number of Vertices
  -101.814243591733, 311.316324541298, 9, !- X,Y,Z Vertex 1 {m}
  -139.826249844479, 298.803596718529, 9, !- X,Y,Z Vertex 2 {m}
  -100.155865591598, 179.212196175235, 9, !- X,Y,Z Vertex 3 {m}
  -77.592634421002, 186.915654569837, 9,  !- X,Y,Z Vertex 4 {m}
  -91.1102269660176, 228.520480943902, 9, !- X,Y,Z Vertex 5 {m}
  17.1984438905596, 264.174803745446, 9,  !- X,Y,Z Vertex 6 {m}
  2.57511444021555, 308.275282689861, 9,  !- X,Y,Z Vertex 7 {m}
  -91.1529436749838, 277.420886569229, 9; !- X,Y,Z Vertex 8 {m}

Shading:Building:Detailed,
  Shading Surface 51,                     !- Name
  ,                                       !- Transmittance Schedule Name
  ,                                       !- Number of Vertices
  -91.1529436749838, 277.420886569229, 9, !- X,Y,Z Vertex 1 {m}
  -91.1529436749838, 277.420886569229, 0, !- X,Y,Z Vertex 2 {m}
  -101.814243591733, 311.316324541298, 0, !- X,Y,Z Vertex 3 {m}
  -101.814243591733, 311.316324541298, 9; !- X,Y,Z Vertex 4 {m}

Shading:Building:Detailed,
  Shading Surface 60,                     !- Name
  ,                                       !- Transmittance Schedule Name
  ,                                       !- Number of Vertices
  38.6574783768911, 666.102627212357, 30, !- X,Y,Z Vertex 1 {m}
  38.6574783768911, 666.102627212357, 0,  !- X,Y,Z Vertex 2 {m}
  -9.15112031188725, 650.051783995106, 0, !- X,Y,Z Vertex 3 {m}
  -9.15112031188725, 650.051783995106, 30; !- X,Y,Z Vertex 4 {m}

Shading:Building:Detailed,
  Shading Surface 61,                     !- Name
  ,                                       !- Transmittance Schedule Name
  ,                                       !- Number of Vertices
  57.3057631754083, 610.958857823749, 30, !- X,Y,Z Vertex 1 {m}
  57.3057631754083, 610.958857823749, 0,  !- X,Y,Z Vertex 2 {m}
  38.6574783768911, 666.102627212357, 0,  !- X,Y,Z Vertex 3 {m}
  38.6574783768911, 666.102627212357, 30; !- X,Y,Z Vertex 4 {m}

Shading:Building:Detailed,
  Shading Surface 62,                     !- Name
  ,                                       !- Transmittance Schedule Name
  ,                                       !- Number of Vertices
  -9.15112031188725, 650.051783995106, 30, !- X,Y,Z Vertex 1 {m}
  -9.15112031188725, 650.051783995106, 0, !- X,Y,Z Vertex 2 {m}
  9.49682546917194, 594.907757813105, 0,  !- X,Y,Z Vertex 3 {m}
  9.49682546917194, 594.907757813105, 30; !- X,Y,Z Vertex 4 {m}

Shading:Building:Detailed,
  Shading Surface 63,                     !- Name
  ,                                       !- Transmittance Schedule Name
  ,                                       !- Number of Vertices
  9.49682546917194, 594.907757813105, 30, !- X,Y,Z Vertex 1 {m}
  9.49682546917194, 594.907757813105, 0,  !- X,Y,Z Vertex 2 {m}
  57.3057631754083, 610.958857823749, 0,  !- X,Y,Z Vertex 3 {m}
  57.3057631754083, 610.958857823749, 30; !- X,Y,Z Vertex 4 {m}

Shading:Building:Detailed,
  Shading Surface 64,                     !- Name
  ,                                       !- Transmittance Schedule Name
  ,                                       !- Number of Vertices
  57.3057631754083, 610.958857823749, 0,  !- X,Y,Z Vertex 1 {m}
  9.49682546917194, 594.907757813105, 0,  !- X,Y,Z Vertex 2 {m}
  -9.15112031188725, 650.051783995106, 0, !- X,Y,Z Vertex 3 {m}
  38.6574783768911, 666.102627212357, 0;  !- X,Y,Z Vertex 4 {m}

Shading:Building:Detailed,
  Shading Surface 65,                     !- Name
  ,                                       !- Transmittance Schedule Name
  ,                                       !- Number of Vertices
  38.6574783768911, 666.102627212357, 30, !- X,Y,Z Vertex 1 {m}
  -9.15112031188725, 650.051783995106, 30, !- X,Y,Z Vertex 2 {m}
  9.49682546917194, 594.907757813105, 30, !- X,Y,Z Vertex 3 {m}
  57.3057631754083, 610.958857823749, 30; !- X,Y,Z Vertex 4 {m}

Shading:Building:Detailed,
  Shading Surface 52,                     !- Name
  ,                                       !- Transmittance Schedule Name
  ,                                       !- Number of Vertices
  -81.2793227611363, 564.57490592341, 24, !- X,Y,Z Vertex 1 {m}
  -81.2793227611363, 564.57490592341, 0,  !- X,Y,Z Vertex 2 {m}
  -99.1373052550749, 620.500204059933, 0, !- X,Y,Z Vertex 3 {m}
  -99.1373052550749, 620.500204059933, 24; !- X,Y,Z Vertex 4 {m}

Shading:Building:Detailed,
  Shading Surface 53,                     !- Name
  ,                                       !- Transmittance Schedule Name
  ,                                       !- Number of Vertices
  -165.460707878093, 372.273559016666, 24, !- X,Y,Z Vertex 1 {m}
  -165.460707878093, 372.273559016666, 0, !- X,Y,Z Vertex 2 {m}
  -126.025888459936, 385.187991234135, 0, !- X,Y,Z Vertex 3 {m}
  -126.025888459936, 385.187991234135, 24; !- X,Y,Z Vertex 4 {m}

Shading:Building:Detailed,
  Shading Surface 54,                     !- Name
  ,                                       !- Transmittance Schedule Name
  ,                                       !- Number of Vertices
  -165.460707878093, 372.273559016666, 0, !- X,Y,Z Vertex 1 {m}
  -233.424702333551, 576.523118876469, 0, !- X,Y,Z Vertex 2 {m}
  -99.1373052550749, 620.500204059933, 0, !- X,Y,Z Vertex 3 {m}
  -81.2793227611363, 564.57490592341, 0,  !- X,Y,Z Vertex 4 {m}
  -174.518672783883, 534.482297410546, 0, !- X,Y,Z Vertex 5 {m}
  -126.025888459936, 385.187991234135, 0; !- X,Y,Z Vertex 6 {m}

Shading:Building:Detailed,
  Shading Surface 55,                     !- Name
  ,                                       !- Transmittance Schedule Name
  ,                                       !- Number of Vertices
  -233.424702333551, 576.523118876469, 24, !- X,Y,Z Vertex 1 {m}
  -233.424702333551, 576.523118876469, 0, !- X,Y,Z Vertex 2 {m}
  -165.460707878093, 372.273559016666, 0, !- X,Y,Z Vertex 3 {m}
  -165.460707878093, 372.273559016666, 24; !- X,Y,Z Vertex 4 {m}

Shading:Building:Detailed,
  Shading Surface 56,                     !- Name
  ,                                       !- Transmittance Schedule Name
  ,                                       !- Number of Vertices
  -126.025888459936, 385.187991234135, 24, !- X,Y,Z Vertex 1 {m}
  -126.025888459936, 385.187991234135, 0, !- X,Y,Z Vertex 2 {m}
  -174.518672783883, 534.482297410546, 0, !- X,Y,Z Vertex 3 {m}
  -174.518672783883, 534.482297410546, 24; !- X,Y,Z Vertex 4 {m}

Shading:Building:Detailed,
  Shading Surface 57,                     !- Name