    ConvergenceLimits,
      0,                       !- Minimum System Timestep {minutes}
      25;                      !- Maximum HVAC Iterations
    
Version,
  22.2;                                   !- Version Identifier

Timestep,
  1;                                      !- Number of Timesteps per Hour

LifeCycleCost:Parameters,
  Life Cycle Cost Parameters,             !- Name
  EndOfYear,                              !- Discounting Convention
  ConstantDollar,                         !- Inflation Approach
  0.03,                                   !- Real Discount Rate
  ,                                       !- Nominal Discount Rate
  ,                                       !- Inflation
  ,                                       !- Base Date Month
  2011,                                   !- Base Date Year
  ,                                       !- Service Date Month
  2011,                                   !- Service Date Year
  25,                                     !- Length of Study Period in Years
  ,                                       !- Tax rate
  None;                                   !- Depreciation Method

LifeCycleCost:UsePriceEscalation,
  U.S. Avg  Commercial-Electricity,       !- Name
  Electricity,                            !- Resource
  2011,                                   !- Escalation Start Year
  January,                                !- Escalation Start Month
  0.9838,                                 !- Year Escalation 1
  0.9730,                                 !- Year Escalation 2
  0.9632,                                 !- Year Escalation 3
  0.9611,                                 !- Year Escalation 4
  0.9571,                                 !- Year Escalation 5
  0.9553,                                 !- Year Escalation 6
  0.9539,                                 !- Year Escalation 7
  0.9521,                                 !- Year Escalation 8
  0.9546,                                 !- Year Escalation 9
  0.9550,                                 !- Year Escalation 10
  0.9553,                                 !- Year Escalation 11
  0.9564,                                 !- Year Escalation 12
  0.9575,                                 !- Year Escalation 13
  0.9596,                                 !- Year Escalation 14
  0.9618,                                 !- Year Escalation 15
  0.9614,                                 !- Year Escalation 16
  0.9618,                                 !- Year Escalation 17
  0.9618,                                 !- Year Escalation 18
  0.9593,                                 !- Year Escalation 19
  0.9589,                                 !- Year Escalation 20
  0.9607,                                 !- Year Escalation 21
  0.9625,                                 !- Year Escalation 22
  0.9650,                                 !- Year Escalation 23
  0.9708,                                 !- Year Escalation 24
  0.9751,                                 !- Year Escalation 25
  0.9762,                                 !- Year Escalation 26
  0.9766,                                 !- Year Escalation 27
  0.9766,                                 !- Year Escalation 28
  0.9769,                                 !- Year Escalation 29
  0.9773;                                 !- Year Escalation 30

LifeCycleCost:UsePriceEscalation,
  U.S. Avg  Commercial-Distillate Oil,    !- Name
  FuelOilNo1,                             !- Resource
  2011,                                   !- Escalation Start Year
  January,                                !- Escalation Start Month
  0.9714,                                 !- Year Escalation 1
  0.9730,                                 !- Year Escalation 2
  0.9942,                                 !- Year Escalation 3
  1.0164,                                 !- Year Escalation 4
  1.0541,                                 !- Year Escalation 5
  1.0928,                                 !- Year Escalation 6
  1.1267,                                 !- Year Escalation 7
  1.1580,                                 !- Year Escalation 8
  1.1792,                                 !- Year Escalation 9
  1.1967,                                 !- Year Escalation 10
  1.2200,                                 !- Year Escalation 11
  1.2333,                                 !- Year Escalation 12
  1.2566,                                 !- Year Escalation 13
  1.2709,                                 !- Year Escalation 14
  1.2826,                                 !- Year Escalation 15
  1.2985,                                 !- Year Escalation 16
  1.3102,                                 !- Year Escalation 17
  1.3250,                                 !- Year Escalation 18
  1.3261,                                 !- Year Escalation 19
  1.3282,                                 !- Year Escalation 20
  1.3324,                                 !- Year Escalation 21
  1.3356,                                 !- Year Escalation 22
  1.3431,                                 !- Year Escalation 23
  1.3510,                                 !- Year Escalation 24
  1.3568,                                 !- Year Escalation 25
  1.3606,                                 !- Year Escalation 26
  1.3637,                                 !- Year Escalation 27
  1.3674,                                 !- Year Escalation 28
  1.3706,                                 !- Year Escalation 29
  1.3743;                                 !- Year Escalation 30

LifeCycleCost:UsePriceEscalation,
  U.S. Avg  Commercial-Residual Oil,      !- Name
  FuelOilNo2,                             !- Resource
  2011,                                   !- Escalation Start Year
  January,                                !- Escalation Start Month
  0.8469,                                 !- Year Escalation 1
  0.8257,                                 !- Year Escalation 2
  0.8681,                                 !- Year Escalation 3
  0.8988,                                 !- Year Escalation 4
  0.9289,                                 !- Year Escalation 5
  0.9604,                                 !- Year Escalation 6
  0.9897,                                 !- Year Escalation 7
  1.0075,                                 !- Year Escalation 8
  1.0314,                                 !- Year Escalation 9
  1.0554,                                 !- Year Escalation 10
  1.0861,                                 !- Year Escalation 11
  1.1278,                                 !- Year Escalation 12
  1.1497,                                 !- Year Escalation 13
  1.1620,                                 !- Year Escalation 14
  1.1743,                                 !- Year Escalation 15
  1.1852,                                 !- Year Escalation 16
  1.1948,                                 !- Year Escalation 17
  1.2037,                                 !- Year Escalation 18
  1.2071,                                 !- Year Escalation 19
  1.2119,                                 !- Year Escalation 20
  1.2139,                                 !- Year Escalation 21
  1.2194,                                 !- Year Escalation 22
  1.2276,                                 !- Year Escalation 23
  1.2365,                                 !- Year Escalation 24
  1.2420,                                 !- Year Escalation 25
  1.2461,                                 !- Year Escalation 26
  1.2509,                                 !- Year Escalation 27
  1.2550,                                 !- Year Escalation 28
  1.2591,                                 !- Year Escalation 29
  1.2638;                                 !- Year Escalation 30

LifeCycleCost:UsePriceEscalation,
  U.S. Avg  Commercial-Natural gas,       !- Name
  NaturalGas,                             !- Resource
  2011,                                   !- Escalation Start Year
  January,                                !- Escalation Start Month
  0.9823,                                 !- Year Escalation 1
  0.9557,                                 !- Year Escalation 2
  0.9279,                                 !- Year Escalation 3
  0.9257,                                 !- Year Escalation 4
  0.9346,                                 !- Year Escalation 5
  0.9412,                                 !- Year Escalation 6
  0.9512,                                 !- Year Escalation 7
  0.9645,                                 !- Year Escalation 8
  0.9856,                                 !- Year Escalation 9
  1.0067,                                 !- Year Escalation 10
  1.0222,                                 !- Year Escalation 11
  1.0410,                                 !- Year Escalation 12
  1.0610,                                 !- Year Escalation 13
  1.0787,                                 !- Year Escalation 14
  1.0942,                                 !- Year Escalation 15
  1.1098,                                 !- Year Escalation 16
  1.1220,                                 !- Year Escalation 17
  1.1308,                                 !- Year Escalation 18
  1.1386,                                 !- Year Escalation 19
  1.1486,                                 !- Year Escalation 20
  1.1619,                                 !- Year Escalation 21
  1.1763,                                 !- Year Escalation 22
  1.1918,                                 !- Year Escalation 23
  1.2118,                                 !- Year Escalation 24
  1.2284,                                 !- Year Escalation 25
  1.2439,                                 !- Year Escalation 26
  1.2605,                                 !- Year Escalation 27
  1.2772,                                 !- Year Escalation 28
  1.2938,                                 !- Year Escalation 29
  1.3115;                                 !- Year Escalation 30

LifeCycleCost:UsePriceEscalation,
  U.S. Avg  Commercial-Coal,              !- Name
  Coal,                                   !- Resource
  2011,                                   !- Escalation Start Year
  January,                                !- Escalation Start Month
  0.9970,                                 !- Year Escalation 1
  1.0089,                                 !- Year Escalation 2
  1.0089,                                 !- Year Escalation 3
  0.9941,                                 !- Year Escalation 4
  0.9941,                                 !- Year Escalation 5
  1.0000,                                 !- Year Escalation 6
  1.0030,                                 !- Year Escalation 7
  1.0059,                                 !- Year Escalation 8
  1.0089,                                 !- Year Escalation 9
  1.0119,                                 !- Year Escalation 10
  1.0148,                                 !- Year Escalation 11
  1.0178,                                 !- Year Escalation 12
  1.0208,                                 !- Year Escalation 13
  1.0267,                                 !- Year Escalation 14
  1.0297,                                 !- Year Escalation 15
  1.0356,                                 !- Year Escalation 16
  1.0415,                                 !- Year Escalation 17
  1.0534,                                 !- Year Escalation 18
  1.0564,                                 !- Year Escalation 19
  1.0593,                                 !- Year Escalation 20
  1.0653,                                 !- Year Escalation 21
  1.0712,                                 !- Year Escalation 22
  1.0742,                                 !- Year Escalation 23
  1.0801,                                 !- Year Escalation 24
  1.0831,                                 !- Year Escalation 25
  1.0831,                                 !- Year Escalation 26
  1.0861,                                 !- Year Escalation 27
  1.0890,                                 !- Year Escalation 28
  1.0920,                                 !- Year Escalation 29
  1.0950;                                 !- Year Escalation 30

Building,
  bld_31,                                 !- Name
  ,                                       !- North Axis {deg}
  City,                                   !- Terrain
  ,                                       !- Loads Convergence Tolerance Value {W}
  ,                                       !- Temperature Convergence Tolerance Value {deltaC}
  ,                                       !- Solar Distribution
  ,                                       !- Maximum Number of Warmup Days
  ;                                       !- Minimum Number of Warmup Days

Shading:Building:Detailed,
  Shading Surface 19,                     !- Name
  ,                                       !- Transmittance Schedule Name
  ,                                       !- Number of Vertices
  -96.3769748590855, 17.8812993321334, 9, !- X,Y,Z Vertex 1 {m}
  -96.3769748590855, 17.8812993321334, 0, !- X,Y,Z Vertex 2 {m}
  -68.9124676906557, 17.8809869832876, 0, !- X,Y,Z Vertex 3 {m}
  -68.9124676906557, 17.8809869832876, 9; !- X,Y,Z Vertex 4 {m}

Shading:Building:Detailed,
  Shading Surface 20,                     !- Name
  ,                                       !- Transmittance Schedule Name
  ,                                       !- Number of Vertices
  -68.9122770613751, 37.9828478409401, 0, !- X,Y,Z Vertex 1 {m}
  -68.9124676906557, 17.8809869832876, 0, !- X,Y,Z Vertex 2 {m}
  -96.3769748590855, 17.8812993321334, 0, !- X,Y,Z Vertex 3 {m}
  -96.3767082565963, 37.9831601896094, 0; !- X,Y,Z Vertex 4 {m}

Shading:Building:Detailed,
  Shading Surface 21,                     !- Name
  ,                                       !- Transmittance Schedule Name
  ,                                       !- Number of Vertices
  -96.3767082565963, 37.9831601896094, 9, !- X,Y,Z Vertex 1 {m}
  -96.3767082565963, 37.9831601896094, 0, !- X,Y,Z Vertex 2 {m}
  -96.3769748590855, 17.8812993321334, 0, !- X,Y,Z Vertex 3 {m}
  -96.3769748590855, 17.8812993321334, 9; !- X,Y,Z Vertex 4 {m}

Shading:Building:Detailed,
  Shading Surface 22,                     !- Name
  ,                                       !- Transmittance Schedule Name
  ,                                       !- Number of Vertices
  -96.3767082565963, 37.9831601896094, 9, !- X,Y,Z Vertex 1 {m}
  -96.3769748590855, 17.8812993321334, 9, !- X,Y,Z Vertex 2 {m}
  -68.9124676906557, 17.8809869832876, 9, !- X,Y,Z Vertex 3 {m}
  -68.9122770613751, 37.9828478409401, 9; !- X,Y,Z Vertex 4 {m}

Shading:Building:Detailed,
  Shading Surface 23,                     !- Name
  ,                                       !- Transmittance Schedule Name
  ,                                       !- Number of Vertices
  -68.9124676906557, 17.8809869832876, 9, !- X,Y,Z Vertex 1 {m}
  -68.9124676906557, 17.8809869832876, 0, !- X,Y,Z Vertex 2 {m}
  -68.9122770613751, 37.9828478409401, 0, !- X,Y,Z Vertex 3 {m}
  -68.9122770613751, 37.9828478409401, 9; !- X,Y,Z Vertex 4 {m}

Shading:Building:Detailed,
  Shading Surface 24,                     !- Name
  ,                                       !- Transmittance Schedule Name
  ,                                       !- Number of Vertices
  -68.9122770613751, 37.9828478409401, 9, !- X,Y,Z Vertex 1 {m}
  -68.9122770613751, 37.9828478409401, 0, !- X,Y,Z Vertex 2 {m}
  -96.3767082565963, 37.9831601896094, 0, !- X,Y,Z Vertex 3 {m}
  -96.3767082565963, 37.9831601896094, 9; !- X,Y,Z Vertex 4 {m}

Shading:Building:Detailed,
  Shading Surface 25,                     !- Name
  ,                                       !- Transmittance Schedule Name
  ,                                       !- Number of Vertices
  -62.46481050503, 40.7592897272887, 9,   !- X,Y,Z Vertex 1 {m}
  -62.4650090745404, 17.6588086959949, 9, !- X,Y,Z Vertex 2 {m}
  -54.0079502056794, 17.6587409210443, 9, !- X,Y,Z Vertex 3 {m}
  -54.0077785198438, 40.7592219522053, 9; !- X,Y,Z Vertex 4 {m}

Shading:Building:Detailed,
  Shading Surface 26,                     !- Name
  ,                                       !- Transmittance Schedule Name
  ,                                       !- Number of Vertices
  -62.4650090745404, 17.6588086959949, 9, !- X,Y,Z Vertex 1 {m}
  -62.4650090745404, 17.6588086959949, 0, !- X,Y,Z Vertex 2 {m}
  -54.0079502056794, 17.6587409210443, 0, !- X,Y,Z Vertex 3 {m}
  -54.0079502056794, 17.6587409210443, 9; !- X,Y,Z Vertex 4 {m}

Shading:Building:Detailed,
  Shading Surface 27,                     !- Name
  ,                                       !- Transmittance Schedule Name
  ,                                       !- Number of Vertices
  -54.0077785198438, 40.7592219522053, 0, !- X,Y,Z Vertex 1 {m}
  -54.0079502056794, 17.6587409210443, 0, !- X,Y,Z Vertex 2 {m}
  -62.4650090745404, 17.6588086959949, 0, !- X,Y,Z Vertex 3 {m}
  -62.46481050503, 40.7592897272887, 0;   !- X,Y,Z Vertex 4 {m}

Shading:Building:Detailed,
  Shading Surface 28,                     !- Name
  ,                                       !- Transmittance Schedule Name
  ,                                       !- Number of Vertices
  -62.46481050503, 40.7592897272887, 9,   !- X,Y,Z Vertex 1 {m}
  -62.46481050503, 40.7592897272887, 0,   !- X,Y,Z Vertex 2 {m}
  -62.4650090745404, 17.6588086959949, 0, !- X,Y,Z Vertex 3 {m}
  -62.4650090745404, 17.6588086959949, 9; !- X,Y,Z Vertex 4 {m}

Shading:Building:Detailed,
  Shading Surface 29,                     !- Name
  ,                                       !- Transmittance Schedule Name
  ,                                       !- Number of Vertices
  -54.0077785198438, 40.7592219522053, 9, !- X,Y,Z Vertex 1 {m}
  -54.0077785198438, 40.7592219522053, 0, !- X,Y,Z Vertex 2 {m}
  -62.46481050503, 40.7592897272887, 0,   !- X,Y,Z Vertex 3 {m}
  -62.46481050503, 40.7592897272887, 9;   !- X,Y,Z Vertex 4 {m}

Shading:Building:Detailed,
  Shading Surface 30,                     !- Name
  ,                                       !- Transmittance Schedule Name
  ,                                       !- Number of Vertices
  -54.0079502056794, 17.6587409210443, 9, !- X,Y,Z Vertex 1 {m}
  -54.0079502056794, 17.6587409210443, 0, !- X,Y,Z Vertex 2 {m}
  -54.0077785198438, 40.7592219522053, 0, !- X,Y,Z Vertex 3 {m}
  -54.0077785198438, 40.7592219522053, 9; !- X,Y,Z Vertex 4 {m}

Shading:Building:Detailed,
  Shading Surface 31,                     !- Name
  ,                                       !- Transmittance Schedule Name
  ,                                       !- Number of Vertices
  8.54090111738596, -75.0765504701262, 9, !- X,Y,Z Vertex 1 {m}
  8.54090111738596, -75.0765504701262, 0, !- X,Y,Z Vertex 2 {m}
  -26.8787182224482, -75.0765057802985, 0, !- X,Y,Z Vertex 3 {m}
  -26.8787182224482, -75.0765057802985, 9; !- X,Y,Z Vertex 4 {m}

Shading:Building:Detailed,
  Shading Surface 32,                     !- Name
  ,                                       !- Transmittance Schedule Name
  ,                                       !- Number of Vertices
  -26.8787182224482, -75.0765057802985, 9, !- X,Y,Z Vertex 1 {m}
  -26.8789010182382, -124.498197976251, 9, !- X,Y,Z Vertex 2 {m}
  8.54095920209394, -124.498242666345, 9, !- X,Y,Z Vertex 3 {m}
  8.54090111738596, -75.0765504701262, 9; !- X,Y,Z Vertex 4 {m}

Shading:Building:Detailed,
  Shading Surface 33,                     !- Name
  ,                                       !- Transmittance Schedule Name
  ,                                       !- Number of Vertices
  8.54095920209394, -124.498242666345, 9, !- X,Y,Z Vertex 1 {m}
  8.54095920209394, -124.498242666345, 0, !- X,Y,Z Vertex 2 {m}
  8.54090111738596, -75.0765504701262, 0, !- X,Y,Z Vertex 3 {m}
  8.54090111738596, -75.0765504701262, 9; !- X,Y,Z Vertex 4 {m}

Shading:Building:Detailed,
  Shading Surface 34,                     !- Name
  ,                                       !- Transmittance Schedule Name
  ,                                       !- Number of Vertices
  -26.8787182224482, -75.0765057802985, 9, !- X,Y,Z Vertex 1 {m}
  -26.8787182224482, -75.0765057802985, 0, !- X,Y,Z Vertex 2 {m}
  -26.8789010182382, -124.498197976251, 0, !- X,Y,Z Vertex 3 {m}
  -26.8789010182382, -124.498197976251, 9; !- X,Y,Z Vertex 4 {m}

Shading:Building:Detailed,
  Shading Surface 35,                     !- Name
  ,                                       !- Transmittance Schedule Name
  ,                                       !- Number of Vertices
  8.54090111738596, -75.0765504701262, 0, !- X,Y,Z Vertex 1 {m}
  8.54095920209394, -124.498242666345, 0, !- X,Y,Z Vertex 2 {m}
  -26.8789010182382, -124.498197976251, 0, !- X,Y,Z Vertex 3 {m}
  -26.8787182224482, -75.0765057802985, 0; !- X,Y,Z Vertex 4 {m}

Shading:Building:Detailed,
  Shading Surface 36,                     !- Name
  ,                                       !- Transmittance Schedule Name
  ,                                       !- Number of Vertices
  -26.8789010182382, -124.498197976251, 9, !- X,Y,Z Vertex 1 {m}
  -26.8789010182382, -124.498197976251, 0, !- X,Y,Z Vertex 2 {m}
  8.54095920209394, -124.498242666345, 0, !- X,Y,Z Vertex 3 {m}
  8.54095920209394, -124.498242666345, 9; !- X,Y,Z Vertex 4 {m}

Shading:Building:Detailed,
  Shading Surface 37,                     !- Name
  ,                                       !- Transmittance Schedule Name
  ,                                       !- Number of Vertices
  90.5175547401172, -135.270501733083, 0, !- X,Y,Z Vertex 1 {m}
  16.4120635803168, -135.271046941586, 0, !- X,Y,Z Vertex 2 {m}
  16.41190732113, -66.0806779631789, 0,   !- X,Y,Z Vertex 3 {m}
  90.5166929243727, -66.080132760495, 0;  !- X,Y,Z Vertex 4 {m}

Shading:Building:Detailed,
  Shading Surface 38,                     !- Name
  ,                                       !- Transmittance Schedule Name
  ,                                       !- Number of Vertices
  16.4120635803168, -135.271046941586, 9, !- X,Y,Z Vertex 1 {m}
  16.4120635803168, -135.271046941586, 0, !- X,Y,Z Vertex 2 {m}
  90.5175547401172, -135.270501733083, 0, !- X,Y,Z Vertex 3 {m}
  90.5175547401172, -135.270501733083, 9; !- X,Y,Z Vertex 4 {m}

Shading:Building:Detailed,
  Shading Surface 39,                     !- Name
  ,                                       !- Transmittance Schedule Name
  ,                                       !- Number of Vertices
  16.41190732113, -66.0806779631789, 9,   !- X,Y,Z Vertex 1 {m}
  16.41190732113, -66.0806779631789, 0,   !- X,Y,Z Vertex 2 {m}
  16.4120635803168, -135.271046941586, 0, !- X,Y,Z Vertex 3 {m}
  16.4120635803168, -135.271046941586, 9; !- X,Y,Z Vertex 4 {m}

Shading:Building:Detailed,
  Shading Surface 40,                     !- Name
  ,                                       !- Transmittance Schedule Name
  ,                                       !- Number of Vertices
  90.5166929243727, -66.080132760495, 9,  !- X,Y,Z Vertex 1 {m}
  90.5166929243727, -66.080132760495, 0,  !- X,Y,Z Vertex 2 {m}
  16.41190732113, -66.0806779631789, 0,   !- X,Y,Z Vertex 3 {m}
  16.41190732113, -66.0806779631789, 9;   !- X,Y,Z Vertex 4 {m}

Shading:Building:Detailed,
  Shading Surface 41,                     !- Name
  ,                                       !- Transmittance Schedule Name
  ,                                       !- Number of Vertices
  90.5175547401172, -135.270501733083, 9, !- X,Y,Z Vertex 1 {m}
  90.5175547401172, -135.270501733083, 0, !- X,Y,Z Vertex 2 {m}
  90.5166929243727, -66.080132760495, 0,  !- X,Y,Z Vertex 3 {m}
  90.5166929243727, -66.080132760495, 9;  !- X,Y,Z Vertex 4 {m}

Shading:Building:Detailed,
  Shading Surface 42,                     !- Name
  ,                                       !- Transmittance Schedule Name
  ,                                       !- Number of Vertices
  90.5166929243727, -66.080132760495, 9,  !- X,Y,Z Vertex 1 {m}
  16.41190732113, -66.0806779631789, 9,   !- X,Y,Z Vertex 2 {m}
  16.4120635803168, -135.271046941586, 9, !- X,Y,Z Vertex 3 {m}
  90.5175547401172, -135.270501733083, 9; !- X,Y,Z Vertex 4 {m}

Shading:Building:Detailed,
  Shading Surface 43,                     !- Name
  ,                                       !- Transmittance Schedule Name
  ,                                       !- Number of Vertices
  -87.0011719264429, -176.029554669074, 9, !- X,Y,Z Vertex 1 {m}
  -87.0011719264429, -176.029554669074, 0, !- X,Y,Z Vertex 2 {m}
  -87.0019284461716, -239.222673964481, 0, !- X,Y,Z Vertex 3 {m}
  -87.0019284461716, -239.222673964481, 9; !- X,Y,Z Vertex 4 {m}

Shading:Building:Detailed,
  Shading Surface 44,                     !- Name
  ,                                       !- Transmittance Schedule Name
  ,                                       !- Number of Vertices
  -7.45245842349557, -176.030071636826, 0, !- X,Y,Z Vertex 1 {m}
  -7.45252322632479, -239.22319093715, 0, !- X,Y,Z Vertex 2 {m}
  -87.0019284461716, -239.222673964481, 0, !- X,Y,Z Vertex 3 {m}
  -87.0011719264429, -176.029554669074, 0; !- X,Y,Z Vertex 4 {m}

Shading:Building:Detailed,
  Shading Surface 45,                     !- Name
  ,                                       !- Transmittance Schedule Name
  ,                                       !- Number of Vertices
  -87.0019284461716, -239.222673964481, 9, !- X,Y,Z Vertex 1 {m}
  -87.0019284461716, -239.222673964481, 0, !- X,Y,Z Vertex 2 {m}
  -7.45252322632479, -239.22319093715, 0, !- X,Y,Z Vertex 3 {m}
  -7.45252322632479, -239.22319093715, 9; !- X,Y,Z Vertex 4 {m}

Shading:Building:Detailed,
  Shading Surface 46,                     !- Name
  ,                                       !- Transmittance Schedule Name
  ,                                       !- Number of Vertices
  -7.45252322632479, -239.22319093715, 9, !- X,Y,Z Vertex 1 {m}
  -7.45252322632479, -239.22319093715, 0, !- X,Y,Z Vertex 2 {m}
  -7.45245842349557, -176.030071636826, 0, !- X,Y,Z Vertex 3 {m}
  -7.45245842349557, -176.030071636826, 9; !- X,Y,Z Vertex 4 {m}

Shading:Building:Detailed,
  Shading Surface 47,                     !- Name
  ,                                       !- Transmittance Schedule Name
  ,                                       !- Number of Vertices
  -87.0011719264429, -176.029554669074, 9, !- X,Y,Z Vertex 1 {m}
  -87.0019284461716, -239.222673964481, 9, !- X,Y,Z Vertex 2 {m}
  -7.45252322632479, -239.22319093715, 9, !- X,Y,Z Vertex 3 {m}
  -7.45245842349557, -176.030071636826, 9; !- X,Y,Z Vertex 4 {m}

Shading:Building:Detailed,
  Shading Surface 48,                     !- Name
  ,                                       !- Transmittance Schedule Name
  ,                                       !- Number of Vertices
  -7.45245842349557, -176.030071636826, 9, !- X,Y,Z Vertex 1 {m}
  -7.45245842349557, -176.030071636826, 0, !- X,Y,Z Vertex 2 {m}
  -87.0011719264429, -176.029554669074, 0, !- X,Y,Z Vertex 3 {m}
  -87.0011719264429, -176.029554669074, 9; !- X,Y,Z Vertex 4 {m}

Shading:Building:Detailed,
  Shading Surface 49,                     !- Name
  ,                                       !- Transmittance Schedule Name
  ,                                       !- Number of Vertices
  -458.53164892741, -114.488383394569, 9, !- X,Y,Z Vertex 1 {m}
  -458.53164892741, -114.488383394569, 0, !- X,Y,Z Vertex 2 {m}
  -39.4390808937674, -114.502742551704, 0, !- X,Y,Z Vertex 3 {m}
  -39.4390808937674, -114.502742551704, 9; !- X,Y,Z Vertex 4 {m}

Shading:Building:Detailed,
  Shading Surface 50,                     !- Name
  ,                                       !- Transmittance Schedule Name
  ,                                       !- Number of Vertices
  -39.4384546535773, 0.88858701957315, 0, !- X,Y,Z Vertex 1 {m}
  -39.4390808937674, -114.502742551704, 0, !- X,Y,Z Vertex 2 {m}
  -458.53164892741, -114.488383394569, 0, !- X,Y,Z Vertex 3 {m}
  -458.524368057467, 0.902945949366678, 0; !- X,Y,Z Vertex 4 {m}

Shading:Building:Detailed,
  Shading Surface 51,                     !- Name
  ,                                       !- Transmittance Schedule Name
  ,                                       !- Number of Vertices
  -458.524368057467, 0.902945949366678, 9, !- X,Y,Z Vertex 1 {m}
  -458.53164892741, -114.488383394569, 9, !- X,Y,Z Vertex 2 {m}
  -39.4390808937674, -114.502742551704, 9, !- X,Y,Z Vertex 3 {m}
  -39.4384546535773, 0.88858701957315, 9; !- X,Y,Z Vertex 4 {m}

Shading:Building:Detailed,
  Shading Surface 52,                     !- Name
  ,                                       !- Transmittance Schedule Name
  ,                                       !- Number of Vertices
  -458.524368057467, 0.902945949366678, 9, !- X,Y,Z Vertex 1 {m}
  -458.524368057467, 0.902945949366678, 0, !- X,Y,Z Vertex 2 {m}
  -458.53164892741, -114.488383394569, 0, !- X,Y,Z Vertex 3 {m}
  -458.53164892741, -114.488383394569, 9; !- X,Y,Z Vertex 4 {m}

Shading:Building:Detailed,
  Shading Surface 53,                     !- Name
  ,                                       !- Transmittance Schedule Name
  ,                                       !- Number of Vertices
  -39.4384546535773, 0.88858701957315, 9, !- X,Y,Z Vertex 1 {m}
  -39.4384546535773, 0.88858701957315, 0, !- X,Y,Z Vertex 2 {m}
  -458.524368057467, 0.902945949366678, 0, !- X,Y,Z Vertex 3 {m}
  -458.524368057467, 0.902945949366678, 9; !- X,Y,Z Vertex 4 {m}

Shading:Building:Detailed,
  Shading Surface 54,                     !- Name
  ,                                       !- Transmittance Schedule Name
  ,                                       !- Number of Vertices
  -39.4390808937674, -114.502742551704, 9, !- X,Y,Z Vertex 1 {m}
  -39.4390808937674, -114.502742551704, 0, !- X,Y,Z Vertex 2 {m}
  -39.4384546535773, 0.88858701957315, 0, !- X,Y,Z Vertex 3 {m}
  -39.4384546535773, 0.88858701957315, 9; !- X,Y,Z Vertex 4 {m}

Shading:Building:Detailed,
  Shading Surface 1,                      !- Name
  ,                                       !- Transmittance Schedule Name
  ,                                       !- Number of Vertices
  -37.9311006809059, 29.9862996668386, 9, !- X,Y,Z Vertex 1 {m}
  -37.9311006809059, 29.9862996668386, 0, !- X,Y,Z Vertex 2 {m}