    ConvergenceLimits,
      0,                       !- Minimum System Timestep {minutes}
      25;                      !- Maximum HVAC Iterations
    
Version,
  22.2;                                   !- Version Identifier

Timestep,
  1;                                      !- Number of Timesteps per Hour

LifeCycleCost:Parameters,
  Life Cycle Cost Parameters,             !- Name
  EndOfYear,                              !- Discounting Convention
  ConstantDollar,                         !- Inflation Approach
  0.03,                                   !- Real Discount Rate
  ,                                       !- Nominal Discount Rate
  ,                                       !- Inflation
  ,                                       !- Base Date Month
  2011,                                   !- Base Date Year
  ,                                       !- Service Date Month
  2011,                                   !- Service Date Year
  25,                                     !- Length of Study Period in Years
  ,                                       !- Tax rate
  None;                                   !- Depreciation Method

LifeCycleCost:UsePriceEscalation,
  U.S. Avg  Commercial-Electricity,       !- Name
  Electricity,                            !- Resource
  2011,                                   !- Escalation Start Year
  January,                                !- Escalation Start Month
  0.9838,                                 !- Year Escalation 1
  0.9730,                                 !- Year Escalation 2
  0.9632,                                 !- Year Escalation 3
  0.9611,                                 !- Year Escalation 4
  0.9571,                                 !- Year Escalation 5
  0.9553,                                 !- Year Escalation 6
  0.9539,                                 !- Year Escalation 7
  0.9521,                                 !- Year Escalation 8
  0.9546,                                 !- Year Escalation 9
  0.9550,                                 !- Year Escalation 10
  0.9553,                                 !- Year Escalation 11
  0.9564,                                 !- Year Escalation 12
  0.9575,                                 !- Year Escalation 13
  0.9596,                                 !- Year Escalation 14
  0.9618,                                 !- Year Escalation 15
  0.9614,                                 !- Year Escalation 16
  0.9618,                                 !- Year Escalation 17
  0.9618,                                 !- Year Escalation 18
  0.9593,                                 !- Year Escalation 19
  0.9589,                                 !- Year Escalation 20
  0.9607,                                 !- Year Escalation 21
  0.9625,                                 !- Year Escalation 22
  0.9650,                                 !- Year Escalation 23
  0.9708,                                 !- Year Escalation 24
  0.9751,                                 !- Year Escalation 25
  0.9762,                                 !- Year Escalation 26
  0.9766,                                 !- Year Escalation 27
  0.9766,                                 !- Year Escalation 28
  0.9769,                                 !- Year Escalation 29
  0.9773;                                 !- Year Escalation 30

LifeCycleCost:UsePriceEscalation,
  U.S. Avg  Commercial-Distillate Oil,    !- Name
  FuelOilNo1,                             !- Resource
  2011,                                   !- Escalation Start Year
  January,                                !- Escalation Start Month
  0.9714,                                 !- Year Escalation 1
  0.9730,                                 !- Year Escalation 2
  0.9942,                                 !- Year Escalation 3
  1.0164,                                 !- Year Escalation 4
  1.0541,                                 !- Year Escalation 5
  1.0928,                                 !- Year Escalation 6
  1.1267,                                 !- Year Escalation 7
  1.1580,                                 !- Year Escalation 8
  1.1792,                                 !- Year Escalation 9
  1.1967,                                 !- Year Escalation 10
  1.2200,                                 !- Year Escalation 11
  1.2333,                                 !- Year Escalation 12
  1.2566,                                 !- Year Escalation 13
  1.2709,                                 !- Year Escalation 14
  1.2826,                                 !- Year Escalation 15
  1.2985,                                 !- Year Escalation 16
  1.3102,                                 !- Year Escalation 17
  1.3250,                                 !- Year Escalation 18
  1.3261,                                 !- Year Escalation 19
  1.3282,                                 !- Year Escalation 20
  1.3324,                                 !- Year Escalation 21
  1.3356,                                 !- Year Escalation 22
  1.3431,                                 !- Year Escalation 23
  1.3510,                                 !- Year Escalation 24
  1.3568,                                 !- Year Escalation 25
  1.3606,                                 !- Year Escalation 26
  1.3637,                                 !- Year Escalation 27
  1.3674,                                 !- Year Escalation 28
  1.3706,                                 !- Year Escalation 29
  1.3743;                                 !- Year Escalation 30

LifeCycleCost:UsePriceEscalation,
  U.S. Avg  Commercial-Residual Oil,      !- Name
  FuelOilNo2,                             !- Resource
  2011,                                   !- Escalation Start Year
  January,                                !- Escalation Start Month
  0.8469,                                 !- Year Escalation 1
  0.8257,                                 !- Year Escalation 2
  0.8681,                                 !- Year Escalation 3
  0.8988,                                 !- Year Escalation 4
  0.9289,                                 !- Year Escalation 5
  0.9604,                                 !- Year Escalation 6
  0.9897,                                 !- Year Escalation 7
  1.0075,                                 !- Year Escalation 8
  1.0314,                                 !- Year Escalation 9
  1.0554,                                 !- Year Escalation 10
  1.0861,                                 !- Year Escalation 11
  1.1278,                                 !- Year Escalation 12
  1.1497,                                 !- Year Escalation 13
  1.1620,                                 !- Year Escalation 14
  1.1743,                                 !- Year Escalation 15
  1.1852,                                 !- Year Escalation 16
  1.1948,                                 !- Year Escalation 17
  1.2037,                                 !- Year Escalation 18
  1.2071,                                 !- Year Escalation 19
  1.2119,                                 !- Year Escalation 20
  1.2139,                                 !- Year Escalation 21
  1.2194,                                 !- Year Escalation 22
  1.2276,                                 !- Year Escalation 23
  1.2365,                                 !- Year Escalation 24
  1.2420,                                 !- Year Escalation 25
  1.2461,                                 !- Year Escalation 26
  1.2509,                                 !- Year Escalation 27
  1.2550,                                 !- Year Escalation 28
  1.2591,                                 !- Year Escalation 29
  1.2638;                                 !- Year Escalation 30

LifeCycleCost:UsePriceEscalation,
  U.S. Avg  Commercial-Natural gas,       !- Name
  NaturalGas,                             !- Resource
  2011,                                   !- Escalation Start Year
  January,                                !- Escalation Start Month
  0.9823,                                 !- Year Escalation 1
  0.9557,                                 !- Year Escalation 2
  0.9279,                                 !- Year Escalation 3
  0.9257,                                 !- Year Escalation 4
  0.9346,                                 !- Year Escalation 5
  0.9412,                                 !- Year Escalation 6
  0.9512,                                 !- Year Escalation 7
  0.9645,                                 !- Year Escalation 8
  0.9856,                                 !- Year Escalation 9
  1.0067,                                 !- Year Escalation 10
  1.0222,                                 !- Year Escalation 11
  1.0410,                                 !- Year Escalation 12
  1.0610,                                 !- Year Escalation 13
  1.0787,                                 !- Year Escalation 14
  1.0942,                                 !- Year Escalation 15
  1.1098,                                 !- Year Escalation 16
  1.1220,                                 !- Year Escalation 17
  1.1308,                                 !- Year Escalation 18
  1.1386,                                 !- Year Escalation 19
  1.1486,                                 !- Year Escalation 20
  1.1619,                                 !- Year Escalation 21
  1.1763,                                 !- Year Escalation 22
  1.1918,                                 !- Year Escalation 23
  1.2118,                                 !- Year Escalation 24
  1.2284,                                 !- Year Escalation 25
  1.2439,                                 !- Year Escalation 26
  1.2605,                                 !- Year Escalation 27
  1.2772,                                 !- Year Escalation 28
  1.2938,                                 !- Year Escalation 29
  1.3115;                                 !- Year Escalation 30

LifeCycleCost:UsePriceEscalation,
  U.S. Avg  Commercial-Coal,              !- Name
  Coal,                                   !- Resource
  2011,                                   !- Escalation Start Year
  January,                                !- Escalation Start Month
  0.9970,                                 !- Year Escalation 1
  1.0089,                                 !- Year Escalation 2
  1.0089,                                 !- Year Escalation 3
  0.9941,                                 !- Year Escalation 4
  0.9941,                                 !- Year Escalation 5
  1.0000,                                 !- Year Escalation 6
  1.0030,                                 !- Year Escalation 7
  1.0059,                                 !- Year Escalation 8
  1.0089,                                 !- Year Escalation 9
  1.0119,                                 !- Year Escalation 10
  1.0148,                                 !- Year Escalation 11
  1.0178,                                 !- Year Escalation 12
  1.0208,                                 !- Year Escalation 13
  1.0267,                                 !- Year Escalation 14
  1.0297,                                 !- Year Escalation 15
  1.0356,                                 !- Year Escalation 16
  1.0415,                                 !- Year Escalation 17
  1.0534,                                 !- Year Escalation 18
  1.0564,                                 !- Year Escalation 19
  1.0593,                                 !- Year Escalation 20
  1.0653,                                 !- Year Escalation 21
  1.0712,                                 !- Year Escalation 22
  1.0742,                                 !- Year Escalation 23
  1.0801,                                 !- Year Escalation 24
  1.0831,                                 !- Year Escalation 25
  1.0831,                                 !- Year Escalation 26
  1.0861,                                 !- Year Escalation 27
  1.0890,                                 !- Year Escalation 28
  1.0920,                                 !- Year Escalation 29
  1.0950;                                 !- Year Escalation 30

Building,
  bld_19,                                 !- Name
  ,                                       !- North Axis {deg}
  City,                                   !- Terrain
  ,                                       !- Loads Convergence Tolerance Value {W}
  ,                                       !- Temperature Convergence Tolerance Value {deltaC}
  ,                                       !- Solar Distribution
  ,                                       !- Maximum Number of Warmup Days
  ;                                       !- Minimum Number of Warmup Days

Shading:Building:Detailed,
  Shading Surface 19,                     !- Name
  ,                                       !- Transmittance Schedule Name
  ,                                       !- Number of Vertices
  -42.0340932944287, 142.37902947989, 9,  !- X,Y,Z Vertex 1 {m}
  -42.0340932944287, 142.37902947989, 0,  !- X,Y,Z Vertex 2 {m}
  -42.0339770174683, 162.480890332537, 0, !- X,Y,Z Vertex 3 {m}
  -42.0339770174683, 162.480890332537, 9; !- X,Y,Z Vertex 4 {m}

Shading:Building:Detailed,
  Shading Surface 20,                     !- Name
  ,                                       !- Transmittance Schedule Name
  ,                                       !- Number of Vertices
  -69.4984082149091, 162.481101092188, 9, !- X,Y,Z Vertex 1 {m}
  -69.4984082149091, 162.481101092188, 0, !- X,Y,Z Vertex 2 {m}
  -69.4986004650782, 142.379240239438, 0, !- X,Y,Z Vertex 3 {m}
  -69.4986004650782, 142.379240239438, 9; !- X,Y,Z Vertex 4 {m}

Shading:Building:Detailed,
  Shading Surface 21,                     !- Name
  ,                                       !- Transmittance Schedule Name
  ,                                       !- Number of Vertices
  -42.0339770174683, 162.480890332537, 9, !- X,Y,Z Vertex 1 {m}
  -42.0339770174683, 162.480890332537, 0, !- X,Y,Z Vertex 2 {m}
  -69.4984082149091, 162.481101092188, 0, !- X,Y,Z Vertex 3 {m}
  -69.4984082149091, 162.481101092188, 9; !- X,Y,Z Vertex 4 {m}

Shading:Building:Detailed,
  Shading Surface 22,                     !- Name
  ,                                       !- Transmittance Schedule Name
  ,                                       !- Number of Vertices
  -42.0339770174683, 162.480890332537, 0, !- X,Y,Z Vertex 1 {m}
  -42.0340932944287, 142.37902947989, 0,  !- X,Y,Z Vertex 2 {m}
  -69.4986004650782, 142.379240239438, 0, !- X,Y,Z Vertex 3 {m}
  -69.4984082149091, 162.481101092188, 0; !- X,Y,Z Vertex 4 {m}

Shading:Building:Detailed,
  Shading Surface 23,                     !- Name
  ,                                       !- Transmittance Schedule Name
  ,                                       !- Number of Vertices
  -69.4986004650782, 142.379240239438, 9, !- X,Y,Z Vertex 1 {m}
  -69.4986004650782, 142.379240239438, 0, !- X,Y,Z Vertex 2 {m}
  -42.0340932944287, 142.37902947989, 0,  !- X,Y,Z Vertex 3 {m}
  -42.0340932944287, 142.37902947989, 9;  !- X,Y,Z Vertex 4 {m}

Shading:Building:Detailed,
  Shading Surface 24,                     !- Name
  ,                                       !- Transmittance Schedule Name
  ,                                       !- Number of Vertices
  -69.4984082149091, 162.481101092188, 9, !- X,Y,Z Vertex 1 {m}
  -69.4986004650782, 142.379240239438, 9, !- X,Y,Z Vertex 2 {m}
  -42.0340932944287, 142.37902947989, 9,  !- X,Y,Z Vertex 3 {m}
  -42.0339770174683, 162.480890332537, 9; !- X,Y,Z Vertex 4 {m}

Shading:Building:Detailed,
  Shading Surface 25,                     !- Name
  ,                                       !- Transmittance Schedule Name
  ,                                       !- Number of Vertices
  -35.5865207304085, 165.257356066393, 9, !- X,Y,Z Vertex 1 {m}
  -35.5865207304085, 165.257356066393, 0, !- X,Y,Z Vertex 2 {m}
  -35.5866338563489, 142.156875041019, 0, !- X,Y,Z Vertex 3 {m}
  -35.5866338563489, 142.156875041019, 9; !- X,Y,Z Vertex 4 {m}

Shading:Building:Detailed,
  Shading Surface 26,                     !- Name
  ,                                       !- Transmittance Schedule Name
  ,                                       !- Number of Vertices
  -35.5866338563489, 142.156875041019, 9, !- X,Y,Z Vertex 1 {m}
  -35.5866338563489, 142.156875041019, 0, !- X,Y,Z Vertex 2 {m}
  -27.1295749870455, 142.156838547508, 0, !- X,Y,Z Vertex 3 {m}
  -27.1295749870455, 142.156838547508, 9; !- X,Y,Z Vertex 4 {m}

Shading:Building:Detailed,
  Shading Surface 27,                     !- Name
  ,                                       !- Transmittance Schedule Name
  ,                                       !- Number of Vertices
  -35.5865207304085, 165.257356066393, 9, !- X,Y,Z Vertex 1 {m}
  -35.5866338563489, 142.156875041019, 9, !- X,Y,Z Vertex 2 {m}
  -27.1295749870455, 142.156838547508, 9, !- X,Y,Z Vertex 3 {m}
  -27.1294887447799, 165.25731957265, 9;  !- X,Y,Z Vertex 4 {m}

Shading:Building:Detailed,
  Shading Surface 28,                     !- Name
  ,                                       !- Transmittance Schedule Name
  ,                                       !- Number of Vertices
  -27.1294887447799, 165.25731957265, 9,  !- X,Y,Z Vertex 1 {m}
  -27.1294887447799, 165.25731957265, 0,  !- X,Y,Z Vertex 2 {m}
  -35.5865207304085, 165.257356066393, 0, !- X,Y,Z Vertex 3 {m}
  -35.5865207304085, 165.257356066393, 9; !- X,Y,Z Vertex 4 {m}

Shading:Building:Detailed,
  Shading Surface 29,                     !- Name
  ,                                       !- Transmittance Schedule Name
  ,                                       !- Number of Vertices
  -27.1295749870455, 142.156838547508, 9, !- X,Y,Z Vertex 1 {m}
  -27.1295749870455, 142.156838547508, 0, !- X,Y,Z Vertex 2 {m}
  -27.1294887447799, 165.25731957265, 0,  !- X,Y,Z Vertex 3 {m}
  -27.1294887447799, 165.25731957265, 9;  !- X,Y,Z Vertex 4 {m}

Shading:Building:Detailed,
  Shading Surface 30,                     !- Name
  ,                                       !- Transmittance Schedule Name
  ,                                       !- Number of Vertices
  -27.1294887447799, 165.25731957265, 0,  !- X,Y,Z Vertex 1 {m}
  -27.1295749870455, 142.156838547508, 0, !- X,Y,Z Vertex 2 {m}
  -35.5866338563489, 142.156875041019, 0, !- X,Y,Z Vertex 3 {m}
  -35.5865207304085, 165.257356066393, 0; !- X,Y,Z Vertex 4 {m}

Shading:Building:Detailed,
  Shading Surface 31,                     !- Name
  ,                                       !- Transmittance Schedule Name
  ,                                       !- Number of Vertices
  117.396495597288, -10.7718695588498, 9, !- X,Y,Z Vertex 1 {m}
  117.396495597288, -10.7718695588498, 0, !- X,Y,Z Vertex 2 {m}
  117.395377867615, 58.4184994182528, 0,  !- X,Y,Z Vertex 3 {m}
  117.395377867615, 58.4184994182528, 9;  !- X,Y,Z Vertex 4 {m}

Shading:Building:Detailed,
  Shading Surface 32,                     !- Name
  ,                                       !- Transmittance Schedule Name
  ,                                       !- Number of Vertices
  117.395377867615, 58.4184994182528, 9,  !- X,Y,Z Vertex 1 {m}
  43.2905922701617, 58.4176801380255, 9,  !- X,Y,Z Vertex 2 {m}
  43.291004443277, -10.7726888475055, 9,  !- X,Y,Z Vertex 3 {m}
  117.396495597288, -10.7718695588498, 9; !- X,Y,Z Vertex 4 {m}

Shading:Building:Detailed,
  Shading Surface 33,                     !- Name
  ,                                       !- Transmittance Schedule Name
  ,                                       !- Number of Vertices
  43.291004443277, -10.7726888475055, 9,  !- X,Y,Z Vertex 1 {m}
  43.291004443277, -10.7726888475055, 0,  !- X,Y,Z Vertex 2 {m}
  117.396495597288, -10.7718695588498, 0, !- X,Y,Z Vertex 3 {m}
  117.396495597288, -10.7718695588498, 9; !- X,Y,Z Vertex 4 {m}

Shading:Building:Detailed,
  Shading Surface 34,                     !- Name
  ,                                       !- Transmittance Schedule Name
  ,                                       !- Number of Vertices
  117.396495597288, -10.7718695588498, 0, !- X,Y,Z Vertex 1 {m}
  43.291004443277, -10.7726888475055, 0,  !- X,Y,Z Vertex 2 {m}
  43.2905922701617, 58.4176801380255, 0,  !- X,Y,Z Vertex 3 {m}
  117.395377867615, 58.4184994182528, 0;  !- X,Y,Z Vertex 4 {m}

Shading:Building:Detailed,
  Shading Surface 35,                     !- Name
  ,                                       !- Transmittance Schedule Name
  ,                                       !- Number of Vertices
  43.2905922701617, 58.4176801380255, 9,  !- X,Y,Z Vertex 1 {m}
  43.2905922701617, 58.4176801380255, 0,  !- X,Y,Z Vertex 2 {m}
  43.291004443277, -10.7726888475055, 0,  !- X,Y,Z Vertex 3 {m}
  43.291004443277, -10.7726888475055, 9;  !- X,Y,Z Vertex 4 {m}

Shading:Building:Detailed,
  Shading Surface 36,                     !- Name
  ,                                       !- Transmittance Schedule Name
  ,                                       !- Number of Vertices
  117.395377867615, 58.4184994182528, 9,  !- X,Y,Z Vertex 1 {m}
  117.395377867615, 58.4184994182528, 0,  !- X,Y,Z Vertex 2 {m}
  43.2905922701617, 58.4176801380255, 0,  !- X,Y,Z Vertex 3 {m}
  43.2905922701617, 58.4176801380255, 9;  !- X,Y,Z Vertex 4 {m}

Shading:Building:Detailed,
  Shading Surface 37,                     !- Name
  ,                                       !- Transmittance Schedule Name
  ,                                       !- Number of Vertices
  -60.1220803125416, -51.5315790897734, 9, !- X,Y,Z Vertex 1 {m}
  -60.1226031047962, -114.724698415793, 9, !- X,Y,Z Vertex 2 {m}
  19.4268021181892, -114.724921149385, 9, !- X,Y,Z Vertex 3 {m}
  19.4266331935443, -51.5318018210068, 9; !- X,Y,Z Vertex 4 {m}

Shading:Building:Detailed,
  Shading Surface 38,                     !- Name
  ,                                       !- Transmittance Schedule Name
  ,                                       !- Number of Vertices
  19.4266331935443, -51.5318018210068, 0, !- X,Y,Z Vertex 1 {m}
  19.4268021181892, -114.724921149385, 0, !- X,Y,Z Vertex 2 {m}
  -60.1226031047962, -114.724698415793, 0, !- X,Y,Z Vertex 3 {m}
  -60.1220803125416, -51.5315790897734, 0; !- X,Y,Z Vertex 4 {m}

Shading:Building:Detailed,
  Shading Surface 39,                     !- Name
  ,                                       !- Transmittance Schedule Name
  ,                                       !- Number of Vertices
  19.4268021181892, -114.724921149385, 9, !- X,Y,Z Vertex 1 {m}
  19.4268021181892, -114.724921149385, 0, !- X,Y,Z Vertex 2 {m}
  19.4266331935443, -51.5318018210068, 0, !- X,Y,Z Vertex 3 {m}
  19.4266331935443, -51.5318018210068, 9; !- X,Y,Z Vertex 4 {m}

Shading:Building:Detailed,
  Shading Surface 40,                     !- Name
  ,                                       !- Transmittance Schedule Name
  ,                                       !- Number of Vertices
  -60.1220803125416, -51.5315790897734, 9, !- X,Y,Z Vertex 1 {m}
  -60.1220803125416, -51.5315790897734, 0, !- X,Y,Z Vertex 2 {m}
  -60.1226031047962, -114.724698415793, 0, !- X,Y,Z Vertex 3 {m}
  -60.1226031047962, -114.724698415793, 9; !- X,Y,Z Vertex 4 {m}

Shading:Building:Detailed,
  Shading Surface 41,                     !- Name
  ,                                       !- Transmittance Schedule Name
  ,                                       !- Number of Vertices
  19.4266331935443, -51.5318018210068, 9, !- X,Y,Z Vertex 1 {m}
  19.4266331935443, -51.5318018210068, 0, !- X,Y,Z Vertex 2 {m}
  -60.1220803125416, -51.5315790897734, 0, !- X,Y,Z Vertex 3 {m}
  -60.1220803125416, -51.5315790897734, 9; !- X,Y,Z Vertex 4 {m}

Shading:Building:Detailed,
  Shading Surface 42,                     !- Name
  ,                                       !- Transmittance Schedule Name
  ,                                       !- Number of Vertices
  -60.1226031047962, -114.724698415793, 9, !- X,Y,Z Vertex 1 {m}
  -60.1226031047962, -114.724698415793, 0, !- X,Y,Z Vertex 2 {m}
  19.4268021181892, -114.724921149385, 0, !- X,Y,Z Vertex 3 {m}
  19.4268021181892, -114.724921149385, 9; !- X,Y,Z Vertex 4 {m}

Shading:Building:Detailed,
  Shading Surface 43,                     !- Name
  ,                                       !- Transmittance Schedule Name
  ,                                       !- Number of Vertices
  -431.645930925019, 125.39954708646, 9,  !- X,Y,Z Vertex 1 {m}
  -431.652784994521, 10.0082177183095, 9, !- X,Y,Z Vertex 2 {m}
  -12.5602168456023, 9.99540896891168, 9, !- X,Y,Z Vertex 3 {m}
  -12.5600174058545, 125.386738539785, 9; !- X,Y,Z Vertex 4 {m}

Shading:Building:Detailed,
  Shading Surface 44,                     !- Name
  ,                                       !- Transmittance Schedule Name
  ,                                       !- Number of Vertices
  -12.5600174058545, 125.386738539785, 0, !- X,Y,Z Vertex 1 {m}
  -12.5602168456023, 9.99540896891168, 0, !- X,Y,Z Vertex 2 {m}
  -431.652784994521, 10.0082177183095, 0, !- X,Y,Z Vertex 3 {m}
  -431.645930925019, 125.39954708646, 0;  !- X,Y,Z Vertex 4 {m}

Shading:Building:Detailed,
  Shading Surface 45,                     !- Name
  ,                                       !- Transmittance Schedule Name
  ,                                       !- Number of Vertices
  -12.5600174058545, 125.386738539785, 9, !- X,Y,Z Vertex 1 {m}
  -12.5600174058545, 125.386738539785, 0, !- X,Y,Z Vertex 2 {m}
  -431.645930925019, 125.39954708646, 0,  !- X,Y,Z Vertex 3 {m}
  -431.645930925019, 125.39954708646, 9;  !- X,Y,Z Vertex 4 {m}

Shading:Building:Detailed,
  Shading Surface 46,                     !- Name
  ,                                       !- Transmittance Schedule Name
  ,                                       !- Number of Vertices
  -431.645930925019, 125.39954708646, 9,  !- X,Y,Z Vertex 1 {m}
  -431.645930925019, 125.39954708646, 0,  !- X,Y,Z Vertex 2 {m}
  -431.652784994521, 10.0082177183095, 0, !- X,Y,Z Vertex 3 {m}
  -431.652784994521, 10.0082177183095, 9; !- X,Y,Z Vertex 4 {m}

Shading:Building:Detailed,
  Shading Surface 47,                     !- Name
  ,                                       !- Transmittance Schedule Name
  ,                                       !- Number of Vertices
  -12.5602168456023, 9.99540896891168, 9, !- X,Y,Z Vertex 1 {m}
  -12.5602168456023, 9.99540896891168, 0, !- X,Y,Z Vertex 2 {m}
  -12.5600174058545, 125.386738539785, 0, !- X,Y,Z Vertex 3 {m}
  -12.5600174058545, 125.386738539785, 9; !- X,Y,Z Vertex 4 {m}

Shading:Building:Detailed,
  Shading Surface 48,                     !- Name
  ,                                       !- Transmittance Schedule Name
  ,                                       !- Number of Vertices
  -431.652784994521, 10.0082177183095, 9, !- X,Y,Z Vertex 1 {m}
  -431.652784994521, 10.0082177183095, 0, !- X,Y,Z Vertex 2 {m}
  -12.5602168456023, 9.99540896891168, 0, !- X,Y,Z Vertex 3 {m}
  -12.5602168456023, 9.99540896891168, 9; !- X,Y,Z Vertex 4 {m}

Shading:Building:Detailed,
  Shading Surface 49,                     !- Name
  ,                                       !- Transmittance Schedule Name
  ,                                       !- Number of Vertices
  -7.53626082432716, -116.057662703365, 0, !- X,Y,Z Vertex 1 {m}
  -7.53635157606652, -203.572903520776, 0, !- X,Y,Z Vertex 2 {m}
  -97.5538842847673, -203.572252668905, 0, !- X,Y,Z Vertex 3 {m}
  -97.5527095534108, -116.057011859208, 0; !- X,Y,Z Vertex 4 {m}

Shading:Building:Detailed,
  Shading Surface 50,                     !- Name
  ,                                       !- Transmittance Schedule Name
  ,                                       !- Number of Vertices
  -97.5527095534108, -116.057011859208, 9, !- X,Y,Z Vertex 1 {m}
  -97.5538842847673, -203.572252668905, 9, !- X,Y,Z Vertex 2 {m}
  -7.53635157606652, -203.572903520776, 9, !- X,Y,Z Vertex 3 {m}
  -7.53626082432716, -116.057662703365, 9; !- X,Y,Z Vertex 4 {m}

Shading:Building:Detailed,
  Shading Surface 51,                     !- Name
  ,                                       !- Transmittance Schedule Name
  ,                                       !- Number of Vertices
  -7.53626082432716, -116.057662703365, 9, !- X,Y,Z Vertex 1 {m}
  -7.53626082432716, -116.057662703365, 0, !- X,Y,Z Vertex 2 {m}
  -97.5527095534108, -116.057011859208, 0, !- X,Y,Z Vertex 3 {m}
  -97.5527095534108, -116.057011859208, 9; !- X,Y,Z Vertex 4 {m}

Shading:Building:Detailed,
  Shading Surface 52,                     !- Name
  ,                                       !- Transmittance Schedule Name
  ,                                       !- Number of Vertices
  -97.5527095534108, -116.057011859208, 9, !- X,Y,Z Vertex 1 {m}
  -97.5527095534108, -116.057011859208, 0, !- X,Y,Z Vertex 2 {m}
  -97.5538842847673, -203.572252668905, 0, !- X,Y,Z Vertex 3 {m}
  -97.5538842847673, -203.572252668905, 9; !- X,Y,Z Vertex 4 {m}

Shading:Building:Detailed,
  Shading Surface 53,                     !- Name
  ,                                       !- Transmittance Schedule Name
  ,                                       !- Number of Vertices
  -7.53635157606652, -203.572903520776, 9, !- X,Y,Z Vertex 1 {m}
  -7.53635157606652, -203.572903520776, 0, !- X,Y,Z Vertex 2 {m}
  -7.53626082432716, -116.057662703365, 0, !- X,Y,Z Vertex 3 {m}
  -7.53626082432716, -116.057662703365, 9; !- X,Y,Z Vertex 4 {m}

Shading:Building:Detailed,
  Shading Surface 54,                     !- Name
  ,                                       !- Transmittance Schedule Name
  ,                                       !- Number of Vertices
  -97.5538842847673, -203.572252668905, 9, !- X,Y,Z Vertex 1 {m}
  -97.5538842847673, -203.572252668905, 0, !- X,Y,Z Vertex 2 {m}
  -7.53635157606652, -203.572903520776, 0, !- X,Y,Z Vertex 3 {m}
  -7.53635157606652, -203.572903520776, 9; !- X,Y,Z Vertex 4 {m}

Shading:Building:Detailed,
  Shading Surface 1,                      !- Name
  ,                                       !- Transmittance Schedule Name
  ,                                       !- Number of Vertices
  -11.052762274968, 160.259577044812, 0,  !- X,Y,Z Vertex 1 {m}
  -11.0527710589067, 154.484456755295, 0, !- X,Y,Z Vertex 2 {m}