  Version,23.1;

  Timestep,1;

  ConvergenceLimits,
    0,                       !- Minimum System Timestep {minutes}
    25;                      !- Maximum HVAC Iterations

  LifeCycleCost:Parameters,
    Life Cycle Cost Parameters,  !- Name
    EndOfYear,               !- Discounting Convention
    ConstantDollar,          !- Inflation Approach
    0.03,                    !- Real Discount Rate
    ,                        !- Nominal Discount Rate
    ,                        !- Inflation
    ,                        !- Base Date Month
    2011,                    !- Base Date Year
    ,                        !- Service Date Month
    2011,                    !- Service Date Year
    25,                      !- Length of Study Period in Years
    ,                        !- Tax rate
    None;                    !- Depreciation Method

  LifeCycleCost:UsePriceEscalation,
    U.S. Avg  Commercial-Electricity,  !- LCC Price Escalation Name
    Electricity,             !- Resource
    2011,                    !- Escalation Start Year
    January,                 !- Escalation Start Month
    0.9838,                  !- Year 1 Escalation
    0.9730,                  !- Year 2 Escalation
    0.9632,                  !- Year 3 Escalation
    0.9611,                  !- Year 4 Escalation
    0.9571,                  !- Year 5 Escalation
    0.9553,                  !- Year 6 Escalation
    0.9539,                  !- Year 7 Escalation
    0.9521,                  !- Year 8 Escalation
    0.9546,                  !- Year 9 Escalation
    0.9550,                  !- <none>
    0.9553,                  !- <none>
    0.9564,                  !- <none>
    0.9575,                  !- <none>
    0.9596,                  !- <none>
    0.9618,                  !- <none>
    0.9614,                  !- <none>
    0.9618,                  !- <none>
    0.9618,                  !- <none>
    0.9593,                  !- <none>
    0.9589,                  !- <none>
    0.9607,                  !- <none>
    0.9625,                  !- <none>
    0.9650,                  !- <none>
    0.9708,                  !- <none>
    0.9751,                  !- <none>
    0.9762,                  !- <none>
    0.9766,                  !- <none>
    0.9766,                  !- <none>
    0.9769,                  !- <none>
    0.9773;                  !- <none>

  LifeCycleCost:UsePriceEscalation,
    U.S. Avg  Commercial-Distillate Oil,  !- LCC Price Escalation Name
    FuelOilNo1,              !- Resource
    2011,                    !- Escalation Start Year
    January,                 !- Escalation Start Month
    0.9714,                  !- Year 1 Escalation
    0.9730,                  !- Year 2 Escalation
    0.9942,                  !- Year 3 Escalation
    1.0164,                  !- Year 4 Escalation
    1.0541,                  !- Year 5 Escalation
    1.0928,                  !- Year 6 Escalation
    1.1267,                  !- Year 7 Escalation
    1.1580,                  !- Year 8 Escalation
    1.1792,                  !- Year 9 Escalation
    1.1967,                  !- <none>
    1.2200,                  !- <none>
    1.2333,                  !- <none>
    1.2566,                  !- <none>
    1.2709,                  !- <none>
    1.2826,                  !- <none>
    1.2985,                  !- <none>
    1.3102,                  !- <none>
    1.3250,                  !- <none>
    1.3261,                  !- <none>
    1.3282,                  !- <none>
    1.3324,                  !- <none>
    1.3356,                  !- <none>
    1.3431,                  !- <none>
    1.3510,                  !- <none>
    1.3568,                  !- <none>
    1.3606,                  !- <none>
    1.3637,                  !- <none>
    1.3674,                  !- <none>
    1.3706,                  !- <none>
    1.3743;                  !- <none>

  LifeCycleCost:UsePriceEscalation,
    U.S. Avg  Commercial-Residual Oil,  !- LCC Price Escalation Name
    FuelOilNo2,              !- Resource
    2011,                    !- Escalation Start Year
    January,                 !- Escalation Start Month
    0.8469,                  !- Year 1 Escalation
    0.8257,                  !- Year 2 Escalation
    0.8681,                  !- Year 3 Escalation
    0.8988,                  !- Year 4 Escalation
    0.9289,                  !- Year 5 Escalation
    0.9604,                  !- Year 6 Escalation
    0.9897,                  !- Year 7 Escalation
    1.0075,                  !- Year 8 Escalation
    1.0314,                  !- Year 9 Escalation
    1.0554,                  !- <none>
    1.0861,                  !- <none>
    1.1278,                  !- <none>
    1.1497,                  !- <none>
    1.1620,                  !- <none>
    1.1743,                  !- <none>
    1.1852,                  !- <none>
    1.1948,                  !- <none>
    1.2037,                  !- <none>
    1.2071,                  !- <none>
    1.2119,                  !- <none>
    1.2139,                  !- <none>
    1.2194,                  !- <none>
    1.2276,                  !- <none>
    1.2365,                  !- <none>
    1.2420,                  !- <none>
    1.2461,                  !- <none>
    1.2509,                  !- <none>
    1.2550,                  !- <none>
    1.2591,                  !- <none>
    1.2638;                  !- <none>

  LifeCycleCost:UsePriceEscalation,
    U.S. Avg  Commercial-Natural gas,  !- LCC Price Escalation Name
    NaturalGas,              !- Resource
    2011,                    !- Escalation Start Year
    January,                 !- Escalation Start Month
    0.9823,                  !- Year 1 Escalation
    0.9557,                  !- Year 2 Escalation
    0.9279,                  !- Year 3 Escalation
    0.9257,                  !- Year 4 Escalation
    0.9346,                  !- Year 5 Escalation
    0.9412,                  !- Year 6 Escalation
    0.9512,                  !- Year 7 Escalation
    0.9645,                  !- Year 8 Escalation
    0.9856,                  !- Year 9 Escalation
    1.0067,                  !- <none>
    1.0222,                  !- <none>
    1.0410,                  !- <none>
    1.0610,                  !- <none>
    1.0787,                  !- <none>
    1.0942,                  !- <none>
    1.1098,                  !- <none>
    1.1220,                  !- <none>
    1.1308,                  !- <none>
    1.1386,                  !- <none>
    1.1486,                  !- <none>
    1.1619,                  !- <none>
    1.1763,                  !- <none>
    1.1918,                  !- <none>
    1.2118,                  !- <none>
    1.2284,                  !- <none>
    1.2439,                  !- <none>
    1.2605,                  !- <none>
    1.2772,                  !- <none>
    1.2938,                  !- <none>
    1.3115;                  !- <none>

  LifeCycleCost:UsePriceEscalation,
    U.S. Avg  Commercial-Coal,  !- LCC Price Escalation Name
    Coal,                    !- Resource
    2011,                    !- Escalation Start Year
    January,                 !- Escalation Start Month
    0.9970,                  !- Year 1 Escalation
    1.0089,                  !- Year 2 Escalation
    1.0089,                  !- Year 3 Escalation
    0.9941,                  !- Year 4 Escalation
    0.9941,                  !- Year 5 Escalation
    1.0000,                  !- Year 6 Escalation
    1.0030,                  !- Year 7 Escalation
    1.0059,                  !- Year 8 Escalation
    1.0089,                  !- Year 9 Escalation
    1.0119,                  !- <none>
    1.0148,                  !- <none>
    1.0178,                  !- <none>
    1.0208,                  !- <none>
    1.0267,                  !- <none>
    1.0297,                  !- <none>
    1.0356,                  !- <none>
    1.0415,                  !- <none>
    1.0534,                  !- <none>
    1.0564,                  !- <none>
    1.0593,                  !- <none>
    1.0653,                  !- <none>
    1.0712,                  !- <none>
    1.0742,                  !- <none>
    1.0801,                  !- <none>
    1.0831,                  !- <none>
    1.0831,                  !- <none>
    1.0861,                  !- <none>
    1.0890,                  !- <none>
    1.0920,                  !- <none>
    1.0950;                  !- <none>

  Building,
    Hotel 1,                 !- Name
    ,                        !- North Axis {deg}
    City,                    !- Terrain
    ,                        !- Loads Convergence Tolerance Value {W}
    ,                        !- Temperature Convergence Tolerance Value {deltaC}
    ,                        !- Solar Distribution
    ,                        !- Maximum Number of Warmup Days
    ;                        !- Minimum Number of Warmup Days

  Shading:Building:Detailed,
    Shading Surface 10,      !- Name
    ,                        !- Transmittance Schedule Name
    ,                        !- Number of Vertices
    -63.145041167163,-499.02322041005,0,  !- X,Y,Z ==> Vertex 1 {m}
    -86.6123922895877,-429.633908862842,0,  !- X,Y,Z ==> Vertex 2 {m}
    -64.2100978355609,-422.297173673963,0,  !- X,Y,Z ==> Vertex 3 {m}
    -56.3329713782092,-446.175836940901,0,  !- X,Y,Z ==> Vertex 4 {m}
    -15.8674925430539,-432.347982213143,0,  !- X,Y,Z ==> Vertex 5 {m}
    -1.31880291447854,-478.199556159337,0;  !- X,Y,Z ==> Vertex 6 {m}

  Shading:Building:Detailed,
    Shading Surface 11,      !- Name
    ,                        !- Transmittance Schedule Name
    ,                        !- Number of Vertices
    -86.6123922895877,-429.633908862842,30,  !- X,Y,Z ==> Vertex 1 {m}
    -86.6123922895877,-429.633908862842,0,  !- X,Y,Z ==> Vertex 2 {m}
    -63.145041167163,-499.02322041005,0,  !- X,Y,Z ==> Vertex 3 {m}
    -63.145041167163,-499.02322041005,30;  !- X,Y,Z ==> Vertex 4 {m}

  Shading:Building:Detailed,
    Shading Surface 12,      !- Name
    ,                        !- Transmittance Schedule Name
    ,                        !- Number of Vertices
    -1.31880291447854,-478.199556159337,30,  !- X,Y,Z ==> Vertex 1 {m}
    -15.8674925430539,-432.347982213143,30,  !- X,Y,Z ==> Vertex 2 {m}
    -56.3329713782092,-446.175836940901,30,  !- X,Y,Z ==> Vertex 3 {m}
    -64.2100978355609,-422.297173673963,30,  !- X,Y,Z ==> Vertex 4 {m}
    -86.6123922895877,-429.633908862842,30,  !- X,Y,Z ==> Vertex 5 {m}
    -63.145041167163,-499.02322041005,30;  !- X,Y,Z ==> Vertex 6 {m}

  Shading:Building:Detailed,
    Shading Surface 13,      !- Name
    ,                        !- Transmittance Schedule Name
    ,                        !- Number of Vertices
    -64.2100978355609,-422.297173673963,30,  !- X,Y,Z ==> Vertex 1 {m}
    -64.2100978355609,-422.297173673963,0,  !- X,Y,Z ==> Vertex 2 {m}
    -86.6123922895877,-429.633908862842,0,  !- X,Y,Z ==> Vertex 3 {m}
    -86.6123922895877,-429.633908862842,30;  !- X,Y,Z ==> Vertex 4 {m}

  Shading:Building:Detailed,
    Shading Surface 14,      !- Name
    ,                        !- Transmittance Schedule Name
    ,                        !- Number of Vertices
    -56.3329713782092,-446.175836940901,30,  !- X,Y,Z ==> Vertex 1 {m}
    -56.3329713782092,-446.175836940901,0,  !- X,Y,Z ==> Vertex 2 {m}
    -64.2100978355609,-422.297173673963,0,  !- X,Y,Z ==> Vertex 3 {m}
    -64.2100978355609,-422.297173673963,30;  !- X,Y,Z ==> Vertex 4 {m}

  Shading:Building:Detailed,
    Shading Surface 7,       !- Name
    ,                        !- Transmittance Schedule Name
    ,                        !- Number of Vertices
    -1.31880291447854,-478.199556159337,30,  !- X,Y,Z ==> Vertex 1 {m}
    -1.31880291447854,-478.199556159337,0,  !- X,Y,Z ==> Vertex 2 {m}
    -15.8674925430539,-432.347982213143,0,  !- X,Y,Z ==> Vertex 3 {m}
    -15.8674925430539,-432.347982213143,30;  !- X,Y,Z ==> Vertex 4 {m}

  Shading:Building:Detailed,
    Shading Surface 8,       !- Name
    ,                        !- Transmittance Schedule Name
    ,                        !- Number of Vertices
    -15.8674925430539,-432.347982213143,30,  !- X,Y,Z ==> Vertex 1 {m}
    -15.8674925430539,-432.347982213143,0,  !- X,Y,Z ==> Vertex 2 {m}
    -56.3329713782092,-446.175836940901,0,  !- X,Y,Z ==> Vertex 3 {m}
    -56.3329713782092,-446.175836940901,30;  !- X,Y,Z ==> Vertex 4 {m}

  Shading:Building:Detailed,
    Shading Surface 9,       !- Name
    ,                        !- Transmittance Schedule Name
    ,                        !- Number of Vertices
    -63.145041167163,-499.02322041005,30,  !- X,Y,Z ==> Vertex 1 {m}
    -63.145041167163,-499.02322041005,0,  !- X,Y,Z ==> Vertex 2 {m}
    -1.31880291447854,-478.199556159337,0,  !- X,Y,Z ==> Vertex 3 {m}
    -1.31880291447854,-478.199556159337,30;  !- X,Y,Z ==> Vertex 4 {m}

  Shading:Building:Detailed,
    Shading Surface 23,      !- Name
    ,                        !- Transmittance Schedule Name
    ,                        !- Number of Vertices
    46.6608859916171,-82.3195456749977,9,  !- X,Y,Z ==> Vertex 1 {m}
    46.6608859916171,-82.3195456749977,0,  !- X,Y,Z ==> Vertex 2 {m}
    119.440720459753,-302.928442182475,0,  !- X,Y,Z ==> Vertex 3 {m}
    119.440720459753,-302.928442182475,9;  !- X,Y,Z ==> Vertex 4 {m}

  Shading:Building:Detailed,
    Shading Surface 24,      !- Name
    ,                        !- Transmittance Schedule Name
    ,                        !- Number of Vertices
    94.0676480825001,-66.7927497367978,9,  !- X,Y,Z ==> Vertex 1 {m}
    94.0676480825001,-66.7927497367978,0,  !- X,Y,Z ==> Vertex 2 {m}
    46.6608859916171,-82.3195456749977,0,  !- X,Y,Z ==> Vertex 3 {m}
    46.6608859916171,-82.3195456749977,9;  !- X,Y,Z ==> Vertex 4 {m}

  Shading:Building:Detailed,
    Shading Surface 25,      !- Name
    ,                        !- Transmittance Schedule Name
    ,                        !- Number of Vertices
    119.440720459753,-302.928442182475,9,  !- X,Y,Z ==> Vertex 1 {m}
    119.440720459753,-302.928442182475,0,  !- X,Y,Z ==> Vertex 2 {m}
    166.848835672688,-287.400652524269,0,  !- X,Y,Z ==> Vertex 3 {m}
    166.848835672688,-287.400652524269,9;  !- X,Y,Z ==> Vertex 4 {m}

  Shading:Building:Detailed,
    Shading Surface 26,      !- Name
    ,                        !- Transmittance Schedule Name
    ,                        !- Number of Vertices
    166.848835672688,-287.400652524269,9,  !- X,Y,Z ==> Vertex 1 {m}
    166.848835672688,-287.400652524269,0,  !- X,Y,Z ==> Vertex 2 {m}
    94.0676480825001,-66.7927497367978,0,  !- X,Y,Z ==> Vertex 3 {m}
    94.0676480825001,-66.7927497367978,9;  !- X,Y,Z ==> Vertex 4 {m}

  Shading:Building:Detailed,
    Shading Surface 27,      !- Name
    ,                        !- Transmittance Schedule Name
    ,                        !- Number of Vertices
    119.440720459753,-302.928442182475,0,  !- X,Y,Z ==> Vertex 1 {m}
    46.6608859916171,-82.3195456749977,0,  !- X,Y,Z ==> Vertex 2 {m}
    94.0676480825001,-66.7927497367978,0,  !- X,Y,Z ==> Vertex 3 {m}
    166.848835672688,-287.400652524269,0;  !- X,Y,Z ==> Vertex 4 {m}

  Shading:Building:Detailed,
    Shading Surface 28,      !- Name
    ,                        !- Transmittance Schedule Name
    ,                        !- Number of Vertices
    166.848835672688,-287.400652524269,9,  !- X,Y,Z ==> Vertex 1 {m}
    94.0676480825001,-66.7927497367978,9,  !- X,Y,Z ==> Vertex 2 {m}
    46.6608859916171,-82.3195456749977,9,  !- X,Y,Z ==> Vertex 3 {m}
    119.440720459753,-302.928442182475,9;  !- X,Y,Z ==> Vertex 4 {m}

  Shading:Building:Detailed,
    Shading Surface 15,      !- Name
    ,                        !- Transmittance Schedule Name
    ,                        !- Number of Vertices
    -156.309218829599,-222.63440623472,0,  !- X,Y,Z ==> Vertex 1 {m}
    -224.273484419203,-18.3849358667551,0,  !- X,Y,Z ==> Vertex 2 {m}
    -89.9861457146195,25.5923274479254,0,  !- X,Y,Z ==> Vertex 3 {m}
    -72.1280889807864,-30.3329472483755,0,  !- X,Y,Z ==> Vertex 4 {m}
    -165.367399059064,-60.4256794712964,0,  !- X,Y,Z ==> Vertex 5 {m}
    -116.874416553223,-209.71992173709,0;  !- X,Y,Z ==> Vertex 6 {m}

  Shading:Building:Detailed,
    Shading Surface 16,      !- Name
    ,                        !- Transmittance Schedule Name
    ,                        !- Number of Vertices
    -224.273484419203,-18.3849358667551,24,  !- X,Y,Z ==> Vertex 1 {m}
    -224.273484419203,-18.3849358667551,0,  !- X,Y,Z ==> Vertex 2 {m}
    -156.309218829599,-222.63440623472,0,  !- X,Y,Z ==> Vertex 3 {m}
    -156.309218829599,-222.63440623472,24;  !- X,Y,Z ==> Vertex 4 {m}

  Shading:Building:Detailed,
    Shading Surface 17,      !- Name
    ,                        !- Transmittance Schedule Name
    ,                        !- Number of Vertices
    -89.9861457146195,25.5923274479254,24,  !- X,Y,Z ==> Vertex 1 {m}
    -89.9861457146195,25.5923274479254,0,  !- X,Y,Z ==> Vertex 2 {m}
    -224.273484419203,-18.3849358667551,0,  !- X,Y,Z ==> Vertex 3 {m}
    -224.273484419203,-18.3849358667551,24;  !- X,Y,Z ==> Vertex 4 {m}

  Shading:Building:Detailed,
    Shading Surface 18,      !- Name
    ,                        !- Transmittance Schedule Name
    ,                        !- Number of Vertices
    -72.1280889807864,-30.3329472483755,24,  !- X,Y,Z ==> Vertex 1 {m}
    -72.1280889807864,-30.3329472483755,0,  !- X,Y,Z ==> Vertex 2 {m}
    -89.9861457146195,25.5923274479254,0,  !- X,Y,Z ==> Vertex 3 {m}
    -89.9861457146195,25.5923274479254,24;  !- X,Y,Z ==> Vertex 4 {m}

  Shading:Building:Detailed,
    Shading Surface 19,      !- Name
    ,                        !- Transmittance Schedule Name
    ,                        !- Number of Vertices
    -116.874416553223,-209.71992173709,24,  !- X,Y,Z ==> Vertex 1 {m}
    -116.874416553223,-209.71992173709,0,  !- X,Y,Z ==> Vertex 2 {m}
    -165.367399059064,-60.4256794712964,0,  !- X,Y,Z ==> Vertex 3 {m}
    -165.367399059064,-60.4256794712964,24;  !- X,Y,Z ==> Vertex 4 {m}

  Shading:Building:Detailed,
    Shading Surface 20,      !- Name
    ,                        !- Transmittance Schedule Name
    ,                        !- Number of Vertices
    -165.367399059064,-60.4256794712964,24,  !- X,Y,Z ==> Vertex 1 {m}
    -165.367399059064,-60.4256794712964,0,  !- X,Y,Z ==> Vertex 2 {m}
    -72.1280889807864,-30.3329472483755,0,  !- X,Y,Z ==> Vertex 3 {m}
    -72.1280889807864,-30.3329472483755,24;  !- X,Y,Z ==> Vertex 4 {m}

  Shading:Building:Detailed,
    Shading Surface 21,      !- Name
    ,                        !- Transmittance Schedule Name
    ,                        !- Number of Vertices
    -156.309218829599,-222.63440623472,24,  !- X,Y,Z ==> Vertex 1 {m}
    -156.309218829599,-222.63440623472,0,  !- X,Y,Z ==> Vertex 2 {m}
    -116.874416553223,-209.71992173709,0,  !- X,Y,Z ==> Vertex 3 {m}
    -116.874416553223,-209.71992173709,24;  !- X,Y,Z ==> Vertex 4 {m}

  Shading:Building:Detailed,
    Shading Surface 22,      !- Name
    ,                        !- Transmittance Schedule Name
    ,                        !- Number of Vertices
    -116.874416553223,-209.71992173709,24,  !- X,Y,Z ==> Vertex 1 {m}
    -165.367399059064,-60.4256794712964,24,  !- X,Y,Z ==> Vertex 2 {m}
    -72.1280889807864,-30.3329472483755,24,  !- X,Y,Z ==> Vertex 3 {m}
    -89.9861457146195,25.5923274479254,24,  !- X,Y,Z ==> Vertex 4 {m}
    -224.273484419203,-18.3849358667551,24,  !- X,Y,Z ==> Vertex 5 {m}
    -156.309218829599,-222.63440623472,24;  !- X,Y,Z ==> Vertex 6 {m}

  Shading:Building:Detailed,
    Shading Surface 1,       !- Name
    ,                        !- Transmittance Schedule Name
    ,                        !- Number of Vertices
    96.5690184566148,-396.8210988026,18,  !- X,Y,Z ==> Vertex 1 {m}
    96.5690184566148,-396.8210988026,0,  !- X,Y,Z ==> Vertex 2 {m}
    111.81061612424,-443.020662403539,0,  !- X,Y,Z ==> Vertex 3 {m}
    111.81061612424,-443.020662403539,18;  !- X,Y,Z ==> Vertex 4 {m}

  Shading:Building:Detailed,
    Shading Surface 2,       !- Name
    ,                        !- Transmittance Schedule Name
    ,                        !- Number of Vertices
    210.275422267135,-410.769770440841,18,  !- X,Y,Z ==> Vertex 1 {m}
    210.275422267135,-410.769770440841,0,  !- X,Y,Z ==> Vertex 2 {m}
    195.033236090581,-364.570639047673,0,  !- X,Y,Z ==> Vertex 3 {m}
    195.033236090581,-364.570639047673,18;  !- X,Y,Z ==> Vertex 4 {m}

  Shading:Building:Detailed,
    Shading Surface 3,       !- Name
    ,                        !- Transmittance Schedule Name
    ,                        !- Number of Vertices
    195.033236090581,-364.570639047673,18,  !- X,Y,Z ==> Vertex 1 {m}
    96.5690184566148,-396.8210988026,18,  !- X,Y,Z ==> Vertex 2 {m}
    111.81061612424,-443.020662403539,18,  !- X,Y,Z ==> Vertex 3 {m}
    210.275422267135,-410.769770440841,18;  !- X,Y,Z ==> Vertex 4 {m}

  Shading:Building:Detailed,
    Shading Surface 4,       !- Name
    ,                        !- Transmittance Schedule Name
    ,                        !- Number of Vertices
    210.275422267135,-410.769770440841,0,  !- X,Y,Z ==> Vertex 1 {m}
    111.81061612424,-443.020662403539,0,  !- X,Y,Z ==> Vertex 2 {m}
    96.5690184566148,-396.8210988026,0,  !- X,Y,Z ==> Vertex 3 {m}
    195.033236090581,-364.570639047673,0;  !- X,Y,Z ==> Vertex 4 {m}

  Shading:Building:Detailed,
    Shading Surface 5,       !- Name
    ,                        !- Transmittance Schedule Name
    ,                        !- Number of Vertices
    111.81061612424,-443.020662403539,18,  !- X,Y,Z ==> Vertex 1 {m}
    111.81061612424,-443.020662403539,0,  !- X,Y,Z ==> Vertex 2 {m}
    210.275422267135,-410.769770440841,0,  !- X,Y,Z ==> Vertex 3 {m}
    210.275422267135,-410.769770440841,18;  !- X,Y,Z ==> Vertex 4 {m}

  Shading:Building:Detailed,
    Shading Surface 6,       !- Name
    ,                        !- Transmittance Schedule Name
    ,                        !- Number of Vertices
    195.033236090581,-364.570639047673,18,  !- X,Y,Z ==> Vertex 1 {m}
    195.033236090581,-364.570639047673,0,  !- X,Y,Z ==> Vertex 2 {m}
    96.5690184566148,-396.8210988026,0,  !- X,Y,Z ==> Vertex 3 {m}
    96.5690184566148,-396.8210988026,18;  !- X,Y,Z ==> Vertex 4 {m}

  Zone,
    Building Story 1 ThermalZone,  !- Name
    0,                       !- Direction of Relative North {deg}
    0,                       !- X Origin {m}
    0,                       !- Y Origin {m}
    0,                       !- Z Origin {m}
    ,                        !- Type
    1,                       !- Multiplier
    ,                        !- Ceiling Height {m}
    ,                        !- Volume {m3}
    ,                        !- Floor Area {m2}
    ,                        !- Zone Inside Convection Algorithm
    ,                        !- Zone Outside Convection Algorithm
    Yes;                     !- Part of Total Floor Area

  BuildingSurface:Detailed,
    Surface 1,               !- Name
    Floor,                   !- Surface Type
    Typical Insulated Carpeted 8in Slab Floor,  !- Construction Name
    Building Story 1 ThermalZone,  !- Zone Name
    ,                        !- Space Name
    Ground,                  !- Outside Boundary Condition
    ,                        !- Outside Boundary Condition Object
    NoSun,                   !- Sun Exposure
    NoWind,                  !- Wind Exposure
    ,                        !- View Factor to Ground
    ,                        !- Number of Vertices
    62.8734195057328,17.8283815135963,0,  !- X,Y,Z ==> Vertex 1 {m}
    20.4252241207029,3.58353494111494,0,  !- X,Y,Z ==> Vertex 2 {m}
    3.58350733036105,53.3668169608157,0,  !- X,Y,Z ==> Vertex 3 {m}
    46.0313798461749,67.6114202021292,0;  !- X,Y,Z ==> Vertex 4 {m}

  BuildingSurface:Detailed,
    Surface 2,               !- Name
    Wall,                    !- Surface Type
    LargeHotel Interior Wall,!- Construction Name
    Building Story 1 ThermalZone,  !- Zone Name
    ,                        !- Space Name
    Adiabatic,               !- Outside Boundary Condition
    ,                        !- Outside Boundary Condition Object
    NoSun,                   !- Sun Exposure
    NoWind,                  !- Wind Exposure
    ,                        !- View Factor to Ground
    ,                        !- Number of Vertices
    20.4252241207029,3.58353494111494,3.6,  !- X,Y,Z ==> Vertex 1 {m}
    20.4252241207029,3.58353494111494,0,  !- X,Y,Z ==> Vertex 2 {m}
    62.8734195057328,17.8283815135963,0,  !- X,Y,Z ==> Vertex 3 {m}
    62.8734195057328,17.8283815135963,3.6;  !- X,Y,Z ==> Vertex 4 {m}

  BuildingSurface:Detailed,
    Surface 3,               !- Name
    Wall,                    !- Surface Type
    LargeHotel Interior Wall,!- Construction Name
    Building Story 1 ThermalZone,  !- Zone Name
    ,                        !- Space Name
    Adiabatic,               !- Outside Boundary Condition
    ,                        !- Outside Boundary Condition Object
    NoSun,                   !- Sun Exposure
    NoWind,                  !- Wind Exposure
    ,                        !- View Factor to Ground
    ,                        !- Number of Vertices
    3.58350733036105,53.3668169608157,3.6,  !- X,Y,Z ==> Vertex 1 {m}
    3.58350733036105,53.3668169608157,0,  !- X,Y,Z ==> Vertex 2 {m}
    20.4252241207029,3.58353494111494,0,  !- X,Y,Z ==> Vertex 3 {m}
    20.4252241207029,3.58353494111494,3.6;  !- X,Y,Z ==> Vertex 4 {m}

  BuildingSurface:Detailed,
    Surface 4,               !- Name
    Wall,                    !- Surface Type
    LargeHotel Interior Wall,!- Construction Name
    Building Story 1 ThermalZone,  !- Zone Name
    ,                        !- Space Name
    Adiabatic,               !- Outside Boundary Condition
    ,                        !- Outside Boundary Condition Object
    NoSun,                   !- Sun Exposure
    NoWind,                  !- Wind Exposure
    ,                        !- View Factor to Ground
    ,                        !- Number of Vertices
    46.0313798461749,67.6114202021292,3.6,  !- X,Y,Z ==> Vertex 1 {m}
    46.0313798461749,67.6114202021292,0,  !- X,Y,Z ==> Vertex 2 {m}
    3.58350733036105,53.3668169608157,0,  !- X,Y,Z ==> Vertex 3 {m}
    3.58350733036105,53.3668169608157,3.6;  !- X,Y,Z ==> Vertex 4 {m}

  BuildingSurface:Detailed,
    Surface 5,               !- Name
    Wall,                    !- Surface Type
    LargeHotel Interior Wall,!- Construction Name
    Building Story 1 ThermalZone,  !- Zone Name
    ,                        !- Space Name
    Adiabatic,               !- Outside Boundary Condition
    ,                        !- Outside Boundary Condition Object
    NoSun,                   !- Sun Exposure
    NoWind,                  !- Wind Exposure
    ,                        !- View Factor to Ground
    ,                        !- Number of Vertices
    62.8734195057328,17.8283815135963,3.6,  !- X,Y,Z ==> Vertex 1 {m}
    62.8734195057328,17.8283815135963,0,  !- X,Y,Z ==> Vertex 2 {m}
    46.0313798461749,67.6114202021292,0,  !- X,Y,Z ==> Vertex 3 {m}
    46.0313798461749,67.6114202021292,3.6;  !- X,Y,Z ==> Vertex 4 {m}

  BuildingSurface:Detailed,
    Surface 6,               !- Name
    Ceiling,                 !- Surface Type
    LargeHotel Interior Floor,  !- Construction Name
    Building Story 1 ThermalZone,  !- Zone Name
    ,                        !- Space Name
    Adiabatic,               !- Outside Boundary Condition
    ,                        !- Outside Boundary Condition Object
    NoSun,                   !- Sun Exposure
    NoWind,                  !- Wind Exposure
    ,                        !- View Factor to Ground
    ,                        !- Number of Vertices
    46.0313798461749,67.6114202021292,3.6,  !- X,Y,Z ==> Vertex 1 {m}
    3.58350733036105,53.3668169608157,3.6,  !- X,Y,Z ==> Vertex 2 {m}
    20.4252241207029,3.58353494111494,3.6,  !- X,Y,Z ==> Vertex 3 {m}
    62.8734195057328,17.8283815135963,3.6;  !- X,Y,Z ==> Vertex 4 {m}

  InternalMass,
    Building Story 1 Space Mass,  !- Name
    InteriorFurnishings 2,   !- Construction Name
    Building Story 1 ThermalZone,  !- Zone or ZoneList Name
    ,                        !- Space or SpaceList Name
    4706.21040620145;        !- Surface Area {m2}

  ZoneControl:Thermostat,
    Building Story 1 ThermalZone Thermostat,  !- Name
    Building Story 1 ThermalZone,  !- Zone or ZoneList Name
    Building Story 1 ThermalZone Thermostat Schedule,  !- Control Type Schedule Name
    ThermostatSetpoint:DualSetpoint,  !- Control 1 Object Type
    Story Ground Blended Space Type Thermostat,  !- Control 1 Name
    ,                        !- Control 2 Object Type
    ,                        !- Control 2 Name
    ,                        !- Control 3 Object Type
    ,                        !- Control 3 Name
    ,                        !- Control 4 Object Type
    ,                        !- Control 4 Name
    0;                       !- Temperature Difference Between Cutout And Setpoint {deltaC}

  Schedule:Compact,
    Building Story 1 ThermalZone Thermostat Schedule,  !- Name
    Building Story 1 ThermalZone Thermostat Schedule Type Limits,  !- Schedule Type Limits Name
    Through: 12/31,          !- Field 1
    For: AllDays,            !- Field 2
    Until: 24:00,4;          !- Field 3

  ScheduleTypeLimits,
    Building Story 1 ThermalZone Thermostat Schedule Type Limits,  !- Name
    0,                       !- Lower Limit Value
    4,                       !- Upper Limit Value
    DISCRETE;                !- Numeric Type

  ThermostatSetpoint:DualSetpoint,
    Story Ground Blended Space Type Thermostat,  !- Name
    HotelLarge HTGSETP_SCH,  !- Heating Setpoint Temperature Schedule Name
    HotelLarge CLGSETP_SCH;  !- Cooling Setpoint Temperature Schedule Name

  ScheduleTypeLimits,
    Temperature,             !- Name
    ,                        !- Lower Limit Value