  ConvergenceLimits,
    0,                       !- Minimum System Timestep {minutes}
    25;                      !- Maximum HVAC Iterations

  Version,23.1;

  Timestep,1;

  LifeCycleCost:Parameters,
    Life Cycle Cost Parameters,  !- Name
    EndOfYear,               !- Discounting Convention
    ConstantDollar,          !- Inflation Approach
    0.03,                    !- Real Discount Rate
    ,                        !- Nominal Discount Rate
    ,                        !- Inflation
    ,                        !- Base Date Month
    2011,                    !- Base Date Year
    ,                        !- Service Date Month
    2011,                    !- Service Date Year
    25,                      !- Length of Study Period in Years
    ,                        !- Tax rate
    None;                    !- Depreciation Method

  LifeCycleCost:UsePriceEscalation,
    U.S. Avg  Commercial-Electricity,  !- LCC Price Escalation Name
    Electricity,             !- Resource
    2011,                    !- Escalation Start Year
    January,                 !- Escalation Start Month
    0.9838,                  !- Year 1 Escalation
    0.9730,                  !- Year 2 Escalation
    0.9632,                  !- Year 3 Escalation
    0.9611,                  !- Year 4 Escalation
    0.9571,                  !- Year 5 Escalation
    0.9553,                  !- Year 6 Escalation
    0.9539,                  !- Year 7 Escalation
    0.9521,                  !- Year 8 Escalation
    0.9546,                  !- Year 9 Escalation
    0.9550,                  !- <none>
    0.9553,                  !- <none>
    0.9564,                  !- <none>
    0.9575,                  !- <none>
    0.9596,                  !- <none>
    0.9618,                  !- <none>
    0.9614,                  !- <none>
    0.9618,                  !- <none>
    0.9618,                  !- <none>
    0.9593,                  !- <none>
    0.9589,                  !- <none>
    0.9607,                  !- <none>
    0.9625,                  !- <none>
    0.9650,                  !- <none>
    0.9708,                  !- <none>
    0.9751,                  !- <none>
    0.9762,                  !- <none>
    0.9766,                  !- <none>
    0.9766,                  !- <none>
    0.9769,                  !- <none>
    0.9773;                  !- <none>

  LifeCycleCost:UsePriceEscalation,
    U.S. Avg  Commercial-Distillate Oil,  !- LCC Price Escalation Name
    FuelOilNo1,              !- Resource
    2011,                    !- Escalation Start Year
    January,                 !- Escalation Start Month
    0.9714,                  !- Year 1 Escalation
    0.9730,                  !- Year 2 Escalation
    0.9942,                  !- Year 3 Escalation
    1.0164,                  !- Year 4 Escalation
    1.0541,                  !- Year 5 Escalation
    1.0928,                  !- Year 6 Escalation
    1.1267,                  !- Year 7 Escalation
    1.1580,                  !- Year 8 Escalation
    1.1792,                  !- Year 9 Escalation
    1.1967,                  !- <none>
    1.2200,                  !- <none>
    1.2333,                  !- <none>
    1.2566,                  !- <none>
    1.2709,                  !- <none>
    1.2826,                  !- <none>
    1.2985,                  !- <none>
    1.3102,                  !- <none>
    1.3250,                  !- <none>
    1.3261,                  !- <none>
    1.3282,                  !- <none>
    1.3324,                  !- <none>
    1.3356,                  !- <none>
    1.3431,                  !- <none>
    1.3510,                  !- <none>
    1.3568,                  !- <none>
    1.3606,                  !- <none>
    1.3637,                  !- <none>
    1.3674,                  !- <none>
    1.3706,                  !- <none>
    1.3743;                  !- <none>

  LifeCycleCost:UsePriceEscalation,
    U.S. Avg  Commercial-Residual Oil,  !- LCC Price Escalation Name
    FuelOilNo2,              !- Resource
    2011,                    !- Escalation Start Year
    January,                 !- Escalation Start Month
    0.8469,                  !- Year 1 Escalation
    0.8257,                  !- Year 2 Escalation
    0.8681,                  !- Year 3 Escalation
    0.8988,                  !- Year 4 Escalation
    0.9289,                  !- Year 5 Escalation
    0.9604,                  !- Year 6 Escalation
    0.9897,                  !- Year 7 Escalation
    1.0075,                  !- Year 8 Escalation
    1.0314,                  !- Year 9 Escalation
    1.0554,                  !- <none>
    1.0861,                  !- <none>
    1.1278,                  !- <none>
    1.1497,                  !- <none>
    1.1620,                  !- <none>
    1.1743,                  !- <none>
    1.1852,                  !- <none>
    1.1948,                  !- <none>
    1.2037,                  !- <none>
    1.2071,                  !- <none>
    1.2119,                  !- <none>
    1.2139,                  !- <none>
    1.2194,                  !- <none>
    1.2276,                  !- <none>
    1.2365,                  !- <none>
    1.2420,                  !- <none>
    1.2461,                  !- <none>
    1.2509,                  !- <none>
    1.2550,                  !- <none>
    1.2591,                  !- <none>
    1.2638;                  !- <none>

  LifeCycleCost:UsePriceEscalation,
    U.S. Avg  Commercial-Natural gas,  !- LCC Price Escalation Name
    NaturalGas,              !- Resource
    2011,                    !- Escalation Start Year
    January,                 !- Escalation Start Month
    0.9823,                  !- Year 1 Escalation
    0.9557,                  !- Year 2 Escalation
    0.9279,                  !- Year 3 Escalation
    0.9257,                  !- Year 4 Escalation
    0.9346,                  !- Year 5 Escalation
    0.9412,                  !- Year 6 Escalation
    0.9512,                  !- Year 7 Escalation
    0.9645,                  !- Year 8 Escalation
    0.9856,                  !- Year 9 Escalation
    1.0067,                  !- <none>
    1.0222,                  !- <none>
    1.0410,                  !- <none>
    1.0610,                  !- <none>
    1.0787,                  !- <none>
    1.0942,                  !- <none>
    1.1098,                  !- <none>
    1.1220,                  !- <none>
    1.1308,                  !- <none>
    1.1386,                  !- <none>
    1.1486,                  !- <none>
    1.1619,                  !- <none>
    1.1763,                  !- <none>
    1.1918,                  !- <none>
    1.2118,                  !- <none>
    1.2284,                  !- <none>
    1.2439,                  !- <none>
    1.2605,                  !- <none>
    1.2772,                  !- <none>
    1.2938,                  !- <none>
    1.3115;                  !- <none>

  LifeCycleCost:UsePriceEscalation,
    U.S. Avg  Commercial-Coal,  !- LCC Price Escalation Name
    Coal,                    !- Resource
    2011,                    !- Escalation Start Year
    January,                 !- Escalation Start Month
    0.9970,                  !- Year 1 Escalation
    1.0089,                  !- Year 2 Escalation
    1.0089,                  !- Year 3 Escalation
    0.9941,                  !- Year 4 Escalation
    0.9941,                  !- Year 5 Escalation
    1.0000,                  !- Year 6 Escalation
    1.0030,                  !- Year 7 Escalation
    1.0059,                  !- Year 8 Escalation
    1.0089,                  !- Year 9 Escalation
    1.0119,                  !- <none>
    1.0148,                  !- <none>
    1.0178,                  !- <none>
    1.0208,                  !- <none>
    1.0267,                  !- <none>
    1.0297,                  !- <none>
    1.0356,                  !- <none>
    1.0415,                  !- <none>
    1.0534,                  !- <none>
    1.0564,                  !- <none>
    1.0593,                  !- <none>
    1.0653,                  !- <none>
    1.0712,                  !- <none>
    1.0742,                  !- <none>
    1.0801,                  !- <none>
    1.0831,                  !- <none>
    1.0831,                  !- <none>
    1.0861,                  !- <none>
    1.0890,                  !- <none>
    1.0920,                  !- <none>
    1.0950;                  !- <none>

  Building,
    bld_2,                   !- Name
    ,                        !- North Axis {deg}
    City,                    !- Terrain
    ,                        !- Loads Convergence Tolerance Value {W}
    ,                        !- Temperature Convergence Tolerance Value {deltaC}
    ,                        !- Solar Distribution
    ,                        !- Maximum Number of Warmup Days
    ;                        !- Minimum Number of Warmup Days

  Shading:Building:Detailed,
    Shading Surface 19,      !- Name
    ,                        !- Transmittance Schedule Name
    ,                        !- Number of Vertices
    74.1065976123579,-34.761389770312,9,  !- X,Y,Z ==> Vertex 1 {m}
    74.1065976123579,-34.761389770312,0,  !- X,Y,Z ==> Vertex 2 {m}
    145.282425811505,-34.7603154377954,0,  !- X,Y,Z ==> Vertex 3 {m}
    145.282425811505,-34.7603154377954,9;  !- X,Y,Z ==> Vertex 4 {m}

  Shading:Building:Detailed,
    Shading Surface 20,      !- Name
    ,                        !- Transmittance Schedule Name
    ,                        !- Number of Vertices
    74.1061366884889,10.4400144844682,9,  !- X,Y,Z ==> Vertex 1 {m}
    74.1061366884889,10.4400144844682,0,  !- X,Y,Z ==> Vertex 2 {m}
    74.1065976123579,-34.761389770312,0,  !- X,Y,Z ==> Vertex 3 {m}
    74.1065976123579,-34.761389770312,9;  !- X,Y,Z ==> Vertex 4 {m}

  Shading:Building:Detailed,
    Shading Surface 21,      !- Name
    ,                        !- Transmittance Schedule Name
    ,                        !- Number of Vertices
    145.282425811505,-34.7603154377954,9,  !- X,Y,Z ==> Vertex 1 {m}
    145.282425811505,-34.7603154377954,0,  !- X,Y,Z ==> Vertex 2 {m}
    145.281522192376,10.4410888105176,0,  !- X,Y,Z ==> Vertex 3 {m}
    145.281522192376,10.4410888105176,9;  !- X,Y,Z ==> Vertex 4 {m}

  Shading:Building:Detailed,
    Shading Surface 22,      !- Name
    ,                        !- Transmittance Schedule Name
    ,                        !- Number of Vertices
    145.281522192376,10.4410888105176,9,  !- X,Y,Z ==> Vertex 1 {m}
    74.1061366884889,10.4400144844682,9,  !- X,Y,Z ==> Vertex 2 {m}
    74.1065976123579,-34.761389770312,9,  !- X,Y,Z ==> Vertex 3 {m}
    145.282425811505,-34.7603154377954,9;  !- X,Y,Z ==> Vertex 4 {m}

  Shading:Building:Detailed,
    Shading Surface 23,      !- Name
    ,                        !- Transmittance Schedule Name
    ,                        !- Number of Vertices
    145.281522192376,10.4410888105176,9,  !- X,Y,Z ==> Vertex 1 {m}
    145.281522192376,10.4410888105176,0,  !- X,Y,Z ==> Vertex 2 {m}
    74.1061366884889,10.4400144844682,0,  !- X,Y,Z ==> Vertex 3 {m}
    74.1061366884889,10.4400144844682,9;  !- X,Y,Z ==> Vertex 4 {m}

  Shading:Building:Detailed,
    Shading Surface 24,      !- Name
    ,                        !- Transmittance Schedule Name
    ,                        !- Number of Vertices
    145.282425811505,-34.7603154377954,0,  !- X,Y,Z ==> Vertex 1 {m}
    74.1065976123579,-34.761389770312,0,  !- X,Y,Z ==> Vertex 2 {m}
    74.1061366884889,10.4400144844682,0,  !- X,Y,Z ==> Vertex 3 {m}
    145.281522192376,10.4410888105176,0;  !- X,Y,Z ==> Vertex 4 {m}

  Shading:Building:Detailed,
    Shading Surface 25,      !- Name
    ,                        !- Transmittance Schedule Name
    ,                        !- Number of Vertices
    258.747010970174,-89.2875981874959,0,  !- X,Y,Z ==> Vertex 1 {m}
    203.648132943879,-89.2893510348645,0,  !- X,Y,Z ==> Vertex 2 {m}
    203.647438951283,-64.5229821897992,0,  !- X,Y,Z ==> Vertex 3 {m}
    258.7461292118,-64.5212293490809,0;  !- X,Y,Z ==> Vertex 4 {m}

  Shading:Building:Detailed,
    Shading Surface 26,      !- Name
    ,                        !- Transmittance Schedule Name
    ,                        !- Number of Vertices
    258.7461292118,-64.5212293490809,9,  !- X,Y,Z ==> Vertex 1 {m}
    203.647438951283,-64.5229821897992,9,  !- X,Y,Z ==> Vertex 2 {m}
    203.648132943879,-89.2893510348645,9,  !- X,Y,Z ==> Vertex 3 {m}
    258.747010970174,-89.2875981874959,9;  !- X,Y,Z ==> Vertex 4 {m}

  Shading:Building:Detailed,
    Shading Surface 27,      !- Name
    ,                        !- Transmittance Schedule Name
    ,                        !- Number of Vertices
    258.747010970174,-89.2875981874959,9,  !- X,Y,Z ==> Vertex 1 {m}
    258.747010970174,-89.2875981874959,0,  !- X,Y,Z ==> Vertex 2 {m}
    258.7461292118,-64.5212293490809,0,  !- X,Y,Z ==> Vertex 3 {m}
    258.7461292118,-64.5212293490809,9;  !- X,Y,Z ==> Vertex 4 {m}

  Shading:Building:Detailed,
    Shading Surface 28,      !- Name
    ,                        !- Transmittance Schedule Name
    ,                        !- Number of Vertices
    203.648132943879,-89.2893510348645,9,  !- X,Y,Z ==> Vertex 1 {m}
    203.648132943879,-89.2893510348645,0,  !- X,Y,Z ==> Vertex 2 {m}
    258.747010970174,-89.2875981874959,0,  !- X,Y,Z ==> Vertex 3 {m}
    258.747010970174,-89.2875981874959,9;  !- X,Y,Z ==> Vertex 4 {m}

  Shading:Building:Detailed,
    Shading Surface 29,      !- Name
    ,                        !- Transmittance Schedule Name
    ,                        !- Number of Vertices
    258.7461292118,-64.5212293490809,9,  !- X,Y,Z ==> Vertex 1 {m}
    258.7461292118,-64.5212293490809,0,  !- X,Y,Z ==> Vertex 2 {m}
    203.647438951283,-64.5229821897992,0,  !- X,Y,Z ==> Vertex 3 {m}
    203.647438951283,-64.5229821897992,9;  !- X,Y,Z ==> Vertex 4 {m}

  Shading:Building:Detailed,
    Shading Surface 30,      !- Name
    ,                        !- Transmittance Schedule Name
    ,                        !- Number of Vertices
    203.647438951283,-64.5229821897992,9,  !- X,Y,Z ==> Vertex 1 {m}
    203.647438951283,-64.5229821897992,0,  !- X,Y,Z ==> Vertex 2 {m}
    203.648132943879,-89.2893510348645,0,  !- X,Y,Z ==> Vertex 3 {m}
    203.648132943879,-89.2893510348645,9;  !- X,Y,Z ==> Vertex 4 {m}

  Shading:Building:Detailed,
    Shading Surface 31,      !- Name
    ,                        !- Transmittance Schedule Name
    ,                        !- Number of Vertices
    17.7518613107202,58.417565128608,9,  !- X,Y,Z ==> Vertex 1 {m}
    17.7518613107202,58.417565128608,0,  !- X,Y,Z ==> Vertex 2 {m}
    61.3778978305756,58.4178026388695,0,  !- X,Y,Z ==> Vertex 3 {m}
    61.3778978305756,58.4178026388695,9;  !- X,Y,Z ==> Vertex 4 {m}

  Shading:Building:Detailed,
    Shading Surface 32,      !- Name
    ,                        !- Transmittance Schedule Name
    ,                        !- Number of Vertices
    17.7516469905241,146.154950317541,9,  !- X,Y,Z ==> Vertex 1 {m}
    17.7516469905241,146.154950317541,0,  !- X,Y,Z ==> Vertex 2 {m}
    17.7518613107202,58.417565128608,0,  !- X,Y,Z ==> Vertex 3 {m}
    17.7518613107202,58.417565128608,9;  !- X,Y,Z ==> Vertex 4 {m}

  Shading:Building:Detailed,
    Shading Surface 33,      !- Name
    ,                        !- Transmittance Schedule Name
    ,                        !- Number of Vertices
    61.3778978305756,58.4178026388695,9,  !- X,Y,Z ==> Vertex 1 {m}
    61.3778978305756,58.4178026388695,0,  !- X,Y,Z ==> Vertex 2 {m}
    61.377156808153,146.155187825027,0,  !- X,Y,Z ==> Vertex 3 {m}
    61.377156808153,146.155187825027,9;  !- X,Y,Z ==> Vertex 4 {m}

  Shading:Building:Detailed,
    Shading Surface 34,      !- Name
    ,                        !- Transmittance Schedule Name
    ,                        !- Number of Vertices
    61.377156808153,146.155187825027,9,  !- X,Y,Z ==> Vertex 1 {m}
    61.377156808153,146.155187825027,0,  !- X,Y,Z ==> Vertex 2 {m}
    17.7516469905241,146.154950317541,0,  !- X,Y,Z ==> Vertex 3 {m}
    17.7516469905241,146.154950317541,9;  !- X,Y,Z ==> Vertex 4 {m}

  Shading:Building:Detailed,
    Shading Surface 35,      !- Name
    ,                        !- Transmittance Schedule Name
    ,                        !- Number of Vertices
    61.377156808153,146.155187825027,9,  !- X,Y,Z ==> Vertex 1 {m}
    17.7516469905241,146.154950317541,9,  !- X,Y,Z ==> Vertex 2 {m}
    17.7518613107202,58.417565128608,9,  !- X,Y,Z ==> Vertex 3 {m}
    61.3778978305756,58.4178026388695,9;  !- X,Y,Z ==> Vertex 4 {m}

  Shading:Building:Detailed,
    Shading Surface 36,      !- Name
    ,                        !- Transmittance Schedule Name
    ,                        !- Number of Vertices
    61.3778978305756,58.4178026388695,0,  !- X,Y,Z ==> Vertex 1 {m}
    17.7518613107202,58.417565128608,0,  !- X,Y,Z ==> Vertex 2 {m}
    17.7516469905241,146.154950317541,0,  !- X,Y,Z ==> Vertex 3 {m}
    61.377156808153,146.155187825027,0;  !- X,Y,Z ==> Vertex 4 {m}

  Shading:Building:Detailed,
    Shading Surface 37,      !- Name
    ,                        !- Transmittance Schedule Name
    ,                        !- Number of Vertices
    1.00479958038373,223.008445637674,9,  !- X,Y,Z ==> Vertex 1 {m}
    1.00479958038373,223.008445637674,0,  !- X,Y,Z ==> Vertex 2 {m}
    1.00480837948685,159.371067520816,0,  !- X,Y,Z ==> Vertex 3 {m}
    1.00480837948685,159.371067520816,9;  !- X,Y,Z ==> Vertex 4 {m}

  Shading:Building:Detailed,
    Shading Surface 38,      !- Name
    ,                        !- Transmittance Schedule Name
    ,                        !- Number of Vertices
    32.9912084631347,159.371142337105,9,  !- X,Y,Z ==> Vertex 1 {m}
    32.9912084631347,159.371142337105,0,  !- X,Y,Z ==> Vertex 2 {m}
    32.9909195559054,223.008520453826,0,  !- X,Y,Z ==> Vertex 3 {m}
    32.9909195559054,223.008520453826,9;  !- X,Y,Z ==> Vertex 4 {m}

  Shading:Building:Detailed,
    Shading Surface 39,      !- Name
    ,                        !- Transmittance Schedule Name
    ,                        !- Number of Vertices
    32.9909195559054,223.008520453826,9,  !- X,Y,Z ==> Vertex 1 {m}
    1.00479958038373,223.008445637674,9,  !- X,Y,Z ==> Vertex 2 {m}
    1.00480837948685,159.371067520816,9,  !- X,Y,Z ==> Vertex 3 {m}
    32.9912084631347,159.371142337105,9;  !- X,Y,Z ==> Vertex 4 {m}

  Shading:Building:Detailed,
    Shading Surface 40,      !- Name
    ,                        !- Transmittance Schedule Name
    ,                        !- Number of Vertices
    32.9909195559054,223.008520453826,9,  !- X,Y,Z ==> Vertex 1 {m}
    32.9909195559054,223.008520453826,0,  !- X,Y,Z ==> Vertex 2 {m}
    1.00479958038373,223.008445637674,0,  !- X,Y,Z ==> Vertex 3 {m}
    1.00479958038373,223.008445637674,9;  !- X,Y,Z ==> Vertex 4 {m}

  Shading:Building:Detailed,
    Shading Surface 41,      !- Name
    ,                        !- Transmittance Schedule Name
    ,                        !- Number of Vertices
    32.9912084631347,159.371142337105,0,  !- X,Y,Z ==> Vertex 1 {m}
    1.00480837948685,159.371067520816,0,  !- X,Y,Z ==> Vertex 2 {m}
    1.00479958038373,223.008445637674,0,  !- X,Y,Z ==> Vertex 3 {m}
    32.9909195559054,223.008520453826,0;  !- X,Y,Z ==> Vertex 4 {m}

  Shading:Building:Detailed,
    Shading Surface 42,      !- Name
    ,                        !- Transmittance Schedule Name
    ,                        !- Number of Vertices
    1.00480837948685,159.371067520816,9,  !- X,Y,Z ==> Vertex 1 {m}
    1.00480837948685,159.371067520816,0,  !- X,Y,Z ==> Vertex 2 {m}
    32.9912084631347,159.371142337105,0,  !- X,Y,Z ==> Vertex 3 {m}
    32.9912084631347,159.371142337105,9;  !- X,Y,Z ==> Vertex 4 {m}

  Shading:Building:Detailed,
    Shading Surface 43,      !- Name
    ,                        !- Transmittance Schedule Name
    ,                        !- Number of Vertices
    190.75261878339,-88.0680415222769,9,  !- X,Y,Z ==> Vertex 1 {m}
    190.75261878339,-88.0680415222769,0,  !- X,Y,Z ==> Vertex 2 {m}
    190.752166957169,-70.8537493441316,0,  !- X,Y,Z ==> Vertex 3 {m}
    190.752166957169,-70.8537493441316,9;  !- X,Y,Z ==> Vertex 4 {m}

  Shading:Building:Detailed,
    Shading Surface 44,      !- Name
    ,                        !- Transmittance Schedule Name
    ,                        !- Number of Vertices
    190.752166957169,-70.8537493441316,9,  !- X,Y,Z ==> Vertex 1 {m}
    190.752166957169,-70.8537493441316,0,  !- X,Y,Z ==> Vertex 2 {m}
    152.986922327293,-70.8546424655007,0,  !- X,Y,Z ==> Vertex 3 {m}
    152.986922327293,-70.8546424655007,9;  !- X,Y,Z ==> Vertex 4 {m}

  Shading:Building:Detailed,
    Shading Surface 45,      !- Name
    ,                        !- Transmittance Schedule Name
    ,                        !- Number of Vertices
    190.75261878339,-88.0680415222769,0,  !- X,Y,Z ==> Vertex 1 {m}
    152.987284700885,-88.068934645672,0,  !- X,Y,Z ==> Vertex 2 {m}
    152.986922327293,-70.8546424655007,0,  !- X,Y,Z ==> Vertex 3 {m}
    190.752166957169,-70.8537493441316,0;  !- X,Y,Z ==> Vertex 4 {m}

  Shading:Building:Detailed,
    Shading Surface 46,      !- Name
    ,                        !- Transmittance Schedule Name
    ,                        !- Number of Vertices
    152.987284700885,-88.068934645672,9,  !- X,Y,Z ==> Vertex 1 {m}
    152.987284700885,-88.068934645672,0,  !- X,Y,Z ==> Vertex 2 {m}
    190.75261878339,-88.0680415222769,0,  !- X,Y,Z ==> Vertex 3 {m}
    190.75261878339,-88.0680415222769,9;  !- X,Y,Z ==> Vertex 4 {m}

  Shading:Building:Detailed,
    Shading Surface 47,      !- Name
    ,                        !- Transmittance Schedule Name
    ,                        !- Number of Vertices
    190.752166957169,-70.8537493441316,9,  !- X,Y,Z ==> Vertex 1 {m}
    152.986922327293,-70.8546424655007,9,  !- X,Y,Z ==> Vertex 2 {m}
    152.987284700885,-88.068934645672,9,  !- X,Y,Z ==> Vertex 3 {m}
    190.75261878339,-88.0680415222769,9;  !- X,Y,Z ==> Vertex 4 {m}

  Shading:Building:Detailed,
    Shading Surface 48,      !- Name
    ,                        !- Transmittance Schedule Name
    ,                        !- Number of Vertices
    152.986922327293,-70.8546424655007,9,  !- X,Y,Z ==> Vertex 1 {m}
    152.986922327293,-70.8546424655007,0,  !- X,Y,Z ==> Vertex 2 {m}
    152.987284700885,-88.068934645672,0,  !- X,Y,Z ==> Vertex 3 {m}
    152.987284700885,-88.068934645672,9;  !- X,Y,Z ==> Vertex 4 {m}

  Shading:Building:Detailed,
    Shading Surface 49,      !- Name
    ,                        !- Transmittance Schedule Name
    ,                        !- Number of Vertices
    86.4142918891906,94.5125496644828,9,  !- X,Y,Z ==> Vertex 1 {m}
    86.4142918891906,94.5125496644828,0,  !- X,Y,Z ==> Vertex 2 {m}
    505.506859689785,94.5296172776639,0,  !- X,Y,Z ==> Vertex 3 {m}
    505.506859689785,94.5296172776639,9;  !- X,Y,Z ==> Vertex 4 {m}

  Shading:Building:Detailed,
    Shading Surface 50,      !- Name
    ,                        !- Transmittance Schedule Name
    ,                        !- Number of Vertices
    505.498832916661,209.920946543059,9,  !- X,Y,Z ==> Vertex 1 {m}
    86.4129197458151,209.903879201552,9,  !- X,Y,Z ==> Vertex 2 {m}
    86.4142918891906,94.5125496644828,9,  !- X,Y,Z ==> Vertex 3 {m}
    505.506859689785,94.5296172776639,9;  !- X,Y,Z ==> Vertex 4 {m}

  Shading:Building:Detailed,
    Shading Surface 51,      !- Name
    ,                        !- Transmittance Schedule Name
    ,                        !- Number of Vertices
    505.498832916661,209.920946543059,9,  !- X,Y,Z ==> Vertex 1 {m}
    505.498832916661,209.920946543059,0,  !- X,Y,Z ==> Vertex 2 {m}
    86.4129197458151,209.903879201552,0,  !- X,Y,Z ==> Vertex 3 {m}
    86.4129197458151,209.903879201552,9;  !- X,Y,Z ==> Vertex 4 {m}

  Shading:Building:Detailed,
    Shading Surface 52,      !- Name
    ,                        !- Transmittance Schedule Name
    ,                        !- Number of Vertices
    86.4129197458151,209.903879201552,9,  !- X,Y,Z ==> Vertex 1 {m}
    86.4129197458151,209.903879201552,0,  !- X,Y,Z ==> Vertex 2 {m}
    86.4142918891906,94.5125496644828,0,  !- X,Y,Z ==> Vertex 3 {m}
    86.4142918891906,94.5125496644828,9;  !- X,Y,Z ==> Vertex 4 {m}

  Shading:Building:Detailed,
    Shading Surface 53,      !- Name
    ,                        !- Transmittance Schedule Name
    ,                        !- Number of Vertices
    505.506859689785,94.5296172776639,0,  !- X,Y,Z ==> Vertex 1 {m}
    86.4142918891906,94.5125496644828,0,  !- X,Y,Z ==> Vertex 2 {m}
    86.4129197458151,209.903879201552,0,  !- X,Y,Z ==> Vertex 3 {m}
    505.498832916661,209.920946543059,0;  !- X,Y,Z ==> Vertex 4 {m}

  Shading:Building:Detailed,
    Shading Surface 54,      !- Name
    ,                        !- Transmittance Schedule Name
    ,                        !- Number of Vertices
    505.506859689785,94.5296172776639,9,  !- X,Y,Z ==> Vertex 1 {m}
    505.506859689785,94.5296172776639,0,  !- X,Y,Z ==> Vertex 2 {m}
    505.498832916661,209.920946543059,0,  !- X,Y,Z ==> Vertex 3 {m}
    505.498832916661,209.920946543059,9;  !- X,Y,Z ==> Vertex 4 {m}

  Shading:Building:Detailed,
    Shading Surface 55,      !- Name
    ,                        !- Transmittance Schedule Name
    ,                        !- Number of Vertices
    151.97981297029,37.6509178772272,9,  !- X,Y,Z ==> Vertex 1 {m}
    151.97981297029,37.6509178772272,0,  !- X,Y,Z ==> Vertex 2 {m}
    151.978719026918,89.9601658811175,0,  !- X,Y,Z ==> Vertex 3 {m}
    151.978719026918,89.9601658811175,9;  !- X,Y,Z ==> Vertex 4 {m}

  Shading:Building:Detailed,
    Shading Surface 56,      !- Name
    ,                        !- Transmittance Schedule Name
    ,                        !- Number of Vertices
    151.97981297029,37.6509178772272,0,  !- X,Y,Z ==> Vertex 1 {m}
    80.2185459193189,37.6497714543568,0,  !- X,Y,Z ==> Vertex 2 {m}
    80.2179685098814,89.9590194671918,0,  !- X,Y,Z ==> Vertex 3 {m}
    151.978719026918,89.9601658811175,0;  !- X,Y,Z ==> Vertex 4 {m}

  Shading:Building:Detailed,
    Shading Surface 57,      !- Name
    ,                        !- Transmittance Schedule Name
    ,                        !- Number of Vertices
    80.2185459193189,37.6497714543568,9,  !- X,Y,Z ==> Vertex 1 {m}
    80.2185459193189,37.6497714543568,0,  !- X,Y,Z ==> Vertex 2 {m}
    151.97981297029,37.6509178772272,0,  !- X,Y,Z ==> Vertex 3 {m}
    151.97981297029,37.6509178772272,9;  !- X,Y,Z ==> Vertex 4 {m}

  Shading:Building:Detailed,
    Shading Surface 58,      !- Name
    ,                        !- Transmittance Schedule Name
    ,                        !- Number of Vertices
    80.2179685098814,89.9590194671918,9,  !- X,Y,Z ==> Vertex 1 {m}
    80.2179685098814,89.9590194671918,0,  !- X,Y,Z ==> Vertex 2 {m}
    80.2185459193189,37.6497714543568,0,  !- X,Y,Z ==> Vertex 3 {m}
    80.2185459193189,37.6497714543568,9;  !- X,Y,Z ==> Vertex 4 {m}

  Shading:Building:Detailed,
    Shading Surface 59,      !- Name
    ,                        !- Transmittance Schedule Name
    ,                        !- Number of Vertices
    151.978719026918,89.9601658811175,9,  !- X,Y,Z ==> Vertex 1 {m}
    151.978719026918,89.9601658811175,0,  !- X,Y,Z ==> Vertex 2 {m}
    80.2179685098814,89.9590194671918,0,  !- X,Y,Z ==> Vertex 3 {m}
    80.2179685098814,89.9590194671918,9;  !- X,Y,Z ==> Vertex 4 {m}

  Shading:Building:Detailed,
    Shading Surface 60,      !- Name
    ,                        !- Transmittance Schedule Name
    ,                        !- Number of Vertices
    151.978719026918,89.9601658811175,9,  !- X,Y,Z ==> Vertex 1 {m}
    80.2179685098814,89.9590194671918,9,  !- X,Y,Z ==> Vertex 2 {m}
    80.2185459193189,37.6497714543568,9,  !- X,Y,Z ==> Vertex 3 {m}
    151.97981297029,37.6509178772272,9;  !- X,Y,Z ==> Vertex 4 {m}

  Shading:Building:Detailed,
    Shading Surface 61,      !- Name
    ,                        !- Transmittance Schedule Name
    ,                        !- Number of Vertices
    75.1958666148454,-102.174769142264,9,  !- X,Y,Z ==> Vertex 1 {m}
    75.1958666148454,-102.174769142264,0,  !- X,Y,Z ==> Vertex 2 {m}
    95.7114426938942,-102.174527912295,0,  !- X,Y,Z ==> Vertex 3 {m}
    95.7114426938942,-102.174527912295,9;  !- X,Y,Z ==> Vertex 4 {m}

  Shading:Building:Detailed,
    Shading Surface 62,      !- Name
    ,                        !- Transmittance Schedule Name
    ,                        !- Number of Vertices
    95.7108064528844,-53.8634497416531,9,  !- X,Y,Z ==> Vertex 1 {m}
    75.195366750757,-53.8636909698157,9,  !- X,Y,Z ==> Vertex 2 {m}
    75.1958666148454,-102.174769142264,9,  !- X,Y,Z ==> Vertex 3 {m}
    95.7114426938942,-102.174527912295,9;  !- X,Y,Z ==> Vertex 4 {m}

  Shading:Building:Detailed,
    Shading Surface 63,      !- Name
    ,                        !- Transmittance Schedule Name
    ,                        !- Number of Vertices
    95.7114426938942,-102.174527912295,9,  !- X,Y,Z ==> Vertex 1 {m}
    95.7114426938942,-102.174527912295,0,  !- X,Y,Z ==> Vertex 2 {m}
    95.7108064528844,-53.8634497416531,0,  !- X,Y,Z ==> Vertex 3 {m}
    95.7108064528844,-53.8634497416531,9;  !- X,Y,Z ==> Vertex 4 {m}

  Shading:Building:Detailed,
    Shading Surface 64,      !- Name
    ,                        !- Transmittance Schedule Name
    ,                        !- Number of Vertices
    95.7114426938942,-102.174527912295,0,  !- X,Y,Z ==> Vertex 1 {m}
    75.1958666148454,-102.174769142264,0,  !- X,Y,Z ==> Vertex 2 {m}
    75.195366750757,-53.8636909698157,0,  !- X,Y,Z ==> Vertex 3 {m}
    95.7108064528844,-53.8634497416531,0;  !- X,Y,Z ==> Vertex 4 {m}

  Shading:Building:Detailed,
    Shading Surface 65,      !- Name
    ,                        !- Transmittance Schedule Name
    ,                        !- Number of Vertices
    75.195366750757,-53.8636909698157,9,  !- X,Y,Z ==> Vertex 1 {m}
    75.195366750757,-53.8636909698157,0,  !- X,Y,Z ==> Vertex 2 {m}