    ConvergenceLimits,
      0,                       !- Minimum System Timestep {minutes}
      25;                      !- Maximum HVAC Iterations
    
Version,
  22.2;                                   !- Version Identifier

Timestep,
  1;                                      !- Number of Timesteps per Hour

LifeCycleCost:Parameters,
  Life Cycle Cost Parameters,             !- Name
  EndOfYear,                              !- Discounting Convention
  ConstantDollar,                         !- Inflation Approach
  0.03,                                   !- Real Discount Rate
  ,                                       !- Nominal Discount Rate
  ,                                       !- Inflation
  ,                                       !- Base Date Month
  2011,                                   !- Base Date Year
  ,                                       !- Service Date Month
  2011,                                   !- Service Date Year
  25,                                     !- Length of Study Period in Years
  ,                                       !- Tax rate
  None;                                   !- Depreciation Method

LifeCycleCost:UsePriceEscalation,
  U.S. Avg  Commercial-Electricity,       !- Name
  Electricity,                            !- Resource
  2011,                                   !- Escalation Start Year
  January,                                !- Escalation Start Month
  0.9838,                                 !- Year Escalation 1
  0.9730,                                 !- Year Escalation 2
  0.9632,                                 !- Year Escalation 3
  0.9611,                                 !- Year Escalation 4
  0.9571,                                 !- Year Escalation 5
  0.9553,                                 !- Year Escalation 6
  0.9539,                                 !- Year Escalation 7
  0.9521,                                 !- Year Escalation 8
  0.9546,                                 !- Year Escalation 9
  0.9550,                                 !- Year Escalation 10
  0.9553,                                 !- Year Escalation 11
  0.9564,                                 !- Year Escalation 12
  0.9575,                                 !- Year Escalation 13
  0.9596,                                 !- Year Escalation 14
  0.9618,                                 !- Year Escalation 15
  0.9614,                                 !- Year Escalation 16
  0.9618,                                 !- Year Escalation 17
  0.9618,                                 !- Year Escalation 18
  0.9593,                                 !- Year Escalation 19
  0.9589,                                 !- Year Escalation 20
  0.9607,                                 !- Year Escalation 21
  0.9625,                                 !- Year Escalation 22
  0.9650,                                 !- Year Escalation 23
  0.9708,                                 !- Year Escalation 24
  0.9751,                                 !- Year Escalation 25
  0.9762,                                 !- Year Escalation 26
  0.9766,                                 !- Year Escalation 27
  0.9766,                                 !- Year Escalation 28
  0.9769,                                 !- Year Escalation 29
  0.9773;                                 !- Year Escalation 30

LifeCycleCost:UsePriceEscalation,
  U.S. Avg  Commercial-Distillate Oil,    !- Name
  FuelOilNo1,                             !- Resource
  2011,                                   !- Escalation Start Year
  January,                                !- Escalation Start Month
  0.9714,                                 !- Year Escalation 1
  0.9730,                                 !- Year Escalation 2
  0.9942,                                 !- Year Escalation 3
  1.0164,                                 !- Year Escalation 4
  1.0541,                                 !- Year Escalation 5
  1.0928,                                 !- Year Escalation 6
  1.1267,                                 !- Year Escalation 7
  1.1580,                                 !- Year Escalation 8
  1.1792,                                 !- Year Escalation 9
  1.1967,                                 !- Year Escalation 10
  1.2200,                                 !- Year Escalation 11
  1.2333,                                 !- Year Escalation 12
  1.2566,                                 !- Year Escalation 13
  1.2709,                                 !- Year Escalation 14
  1.2826,                                 !- Year Escalation 15
  1.2985,                                 !- Year Escalation 16
  1.3102,                                 !- Year Escalation 17
  1.3250,                                 !- Year Escalation 18
  1.3261,                                 !- Year Escalation 19
  1.3282,                                 !- Year Escalation 20
  1.3324,                                 !- Year Escalation 21
  1.3356,                                 !- Year Escalation 22
  1.3431,                                 !- Year Escalation 23
  1.3510,                                 !- Year Escalation 24
  1.3568,                                 !- Year Escalation 25
  1.3606,                                 !- Year Escalation 26
  1.3637,                                 !- Year Escalation 27
  1.3674,                                 !- Year Escalation 28
  1.3706,                                 !- Year Escalation 29
  1.3743;                                 !- Year Escalation 30

LifeCycleCost:UsePriceEscalation,
  U.S. Avg  Commercial-Residual Oil,      !- Name
  FuelOilNo2,                             !- Resource
  2011,                                   !- Escalation Start Year
  January,                                !- Escalation Start Month
  0.8469,                                 !- Year Escalation 1
  0.8257,                                 !- Year Escalation 2
  0.8681,                                 !- Year Escalation 3
  0.8988,                                 !- Year Escalation 4
  0.9289,                                 !- Year Escalation 5
  0.9604,                                 !- Year Escalation 6
  0.9897,                                 !- Year Escalation 7
  1.0075,                                 !- Year Escalation 8
  1.0314,                                 !- Year Escalation 9
  1.0554,                                 !- Year Escalation 10
  1.0861,                                 !- Year Escalation 11
  1.1278,                                 !- Year Escalation 12
  1.1497,                                 !- Year Escalation 13
  1.1620,                                 !- Year Escalation 14
  1.1743,                                 !- Year Escalation 15
  1.1852,                                 !- Year Escalation 16
  1.1948,                                 !- Year Escalation 17
  1.2037,                                 !- Year Escalation 18
  1.2071,                                 !- Year Escalation 19
  1.2119,                                 !- Year Escalation 20
  1.2139,                                 !- Year Escalation 21
  1.2194,                                 !- Year Escalation 22
  1.2276,                                 !- Year Escalation 23
  1.2365,                                 !- Year Escalation 24
  1.2420,                                 !- Year Escalation 25
  1.2461,                                 !- Year Escalation 26
  1.2509,                                 !- Year Escalation 27
  1.2550,                                 !- Year Escalation 28
  1.2591,                                 !- Year Escalation 29
  1.2638;                                 !- Year Escalation 30

LifeCycleCost:UsePriceEscalation,
  U.S. Avg  Commercial-Natural gas,       !- Name
  NaturalGas,                             !- Resource
  2011,                                   !- Escalation Start Year
  January,                                !- Escalation Start Month
  0.9823,                                 !- Year Escalation 1
  0.9557,                                 !- Year Escalation 2
  0.9279,                                 !- Year Escalation 3
  0.9257,                                 !- Year Escalation 4
  0.9346,                                 !- Year Escalation 5
  0.9412,                                 !- Year Escalation 6
  0.9512,                                 !- Year Escalation 7
  0.9645,                                 !- Year Escalation 8
  0.9856,                                 !- Year Escalation 9
  1.0067,                                 !- Year Escalation 10
  1.0222,                                 !- Year Escalation 11
  1.0410,                                 !- Year Escalation 12
  1.0610,                                 !- Year Escalation 13
  1.0787,                                 !- Year Escalation 14
  1.0942,                                 !- Year Escalation 15
  1.1098,                                 !- Year Escalation 16
  1.1220,                                 !- Year Escalation 17
  1.1308,                                 !- Year Escalation 18
  1.1386,                                 !- Year Escalation 19
  1.1486,                                 !- Year Escalation 20
  1.1619,                                 !- Year Escalation 21
  1.1763,                                 !- Year Escalation 22
  1.1918,                                 !- Year Escalation 23
  1.2118,                                 !- Year Escalation 24
  1.2284,                                 !- Year Escalation 25
  1.2439,                                 !- Year Escalation 26
  1.2605,                                 !- Year Escalation 27
  1.2772,                                 !- Year Escalation 28
  1.2938,                                 !- Year Escalation 29
  1.3115;                                 !- Year Escalation 30

LifeCycleCost:UsePriceEscalation,
  U.S. Avg  Commercial-Coal,              !- Name
  Coal,                                   !- Resource
  2011,                                   !- Escalation Start Year
  January,                                !- Escalation Start Month
  0.9970,                                 !- Year Escalation 1
  1.0089,                                 !- Year Escalation 2
  1.0089,                                 !- Year Escalation 3
  0.9941,                                 !- Year Escalation 4
  0.9941,                                 !- Year Escalation 5
  1.0000,                                 !- Year Escalation 6
  1.0030,                                 !- Year Escalation 7
  1.0059,                                 !- Year Escalation 8
  1.0089,                                 !- Year Escalation 9
  1.0119,                                 !- Year Escalation 10
  1.0148,                                 !- Year Escalation 11
  1.0178,                                 !- Year Escalation 12
  1.0208,                                 !- Year Escalation 13
  1.0267,                                 !- Year Escalation 14
  1.0297,                                 !- Year Escalation 15
  1.0356,                                 !- Year Escalation 16
  1.0415,                                 !- Year Escalation 17
  1.0534,                                 !- Year Escalation 18
  1.0564,                                 !- Year Escalation 19
  1.0593,                                 !- Year Escalation 20
  1.0653,                                 !- Year Escalation 21
  1.0712,                                 !- Year Escalation 22
  1.0742,                                 !- Year Escalation 23
  1.0801,                                 !- Year Escalation 24
  1.0831,                                 !- Year Escalation 25
  1.0831,                                 !- Year Escalation 26
  1.0861,                                 !- Year Escalation 27
  1.0890,                                 !- Year Escalation 28
  1.0920,                                 !- Year Escalation 29
  1.0950;                                 !- Year Escalation 30

Building,
  bld_13,                                 !- Name
  ,                                       !- North Axis {deg}
  City,                                   !- Terrain
  ,                                       !- Loads Convergence Tolerance Value {W}
  ,                                       !- Temperature Convergence Tolerance Value {deltaC}
  ,                                       !- Solar Distribution
  ,                                       !- Maximum Number of Warmup Days
  ;                                       !- Minimum Number of Warmup Days

Shading:Building:Detailed,
  Shading Surface 1,                      !- Name
  ,                                       !- Transmittance Schedule Name
  ,                                       !- Number of Vertices
  289.715711148533, 101.292495216505, 12, !- X,Y,Z Vertex 1 {m}
  289.715711148533, 101.292495216505, 0,  !- X,Y,Z Vertex 2 {m}
  281.09121752272, 101.514276511272, 0,   !- X,Y,Z Vertex 3 {m}
  281.09121752272, 101.514276511272, 12;  !- X,Y,Z Vertex 4 {m}

Shading:Building:Detailed,
  Shading Surface 2,                      !- Name
  ,                                       !- Transmittance Schedule Name
  ,                                       !- Number of Vertices
  281.09121752272, 101.514276511272, 12,  !- X,Y,Z Vertex 1 {m}
  280.505811998707, 82.7451126490141, 12, !- X,Y,Z Vertex 2 {m}
  289.130327881372, 82.5233306658336, 12, !- X,Y,Z Vertex 3 {m}
  289.715711148533, 101.292495216505, 12; !- X,Y,Z Vertex 4 {m}

Shading:Building:Detailed,
  Shading Surface 3,                      !- Name
  ,                                       !- Transmittance Schedule Name
  ,                                       !- Number of Vertices
  289.130327881372, 82.5233306658336, 12, !- X,Y,Z Vertex 1 {m}
  289.130327881372, 82.5233306658336, 0,  !- X,Y,Z Vertex 2 {m}
  289.715711148533, 101.292495216505, 0,  !- X,Y,Z Vertex 3 {m}
  289.715711148533, 101.292495216505, 12; !- X,Y,Z Vertex 4 {m}

Shading:Building:Detailed,
  Shading Surface 4,                      !- Name
  ,                                       !- Transmittance Schedule Name
  ,                                       !- Number of Vertices
  280.505811998707, 82.7451126490141, 12, !- X,Y,Z Vertex 1 {m}
  280.505811998707, 82.7451126490141, 0,  !- X,Y,Z Vertex 2 {m}
  289.130327881372, 82.5233306658336, 0,  !- X,Y,Z Vertex 3 {m}
  289.130327881372, 82.5233306658336, 12; !- X,Y,Z Vertex 4 {m}

Shading:Building:Detailed,
  Shading Surface 5,                      !- Name
  ,                                       !- Transmittance Schedule Name
  ,                                       !- Number of Vertices
  289.715711148533, 101.292495216505, 0,  !- X,Y,Z Vertex 1 {m}
  289.130327881372, 82.5233306658336, 0,  !- X,Y,Z Vertex 2 {m}
  280.505811998707, 82.7451126490141, 0,  !- X,Y,Z Vertex 3 {m}
  281.09121752272, 101.514276511272, 0;   !- X,Y,Z Vertex 4 {m}

Shading:Building:Detailed,
  Shading Surface 6,                      !- Name
  ,                                       !- Transmittance Schedule Name
  ,                                       !- Number of Vertices
  281.09121752272, 101.514276511272, 12,  !- X,Y,Z Vertex 1 {m}
  281.09121752272, 101.514276511272, 0,   !- X,Y,Z Vertex 2 {m}
  280.505811998707, 82.7451126490141, 0,  !- X,Y,Z Vertex 3 {m}
  280.505811998707, 82.7451126490141, 12; !- X,Y,Z Vertex 4 {m}

Shading:Building:Detailed,
  Shading Surface 54,                     !- Name
  ,                                       !- Transmittance Schedule Name
  ,                                       !- Number of Vertices
  135.73570296846, -151.92878222398, 0,   !- X,Y,Z Vertex 1 {m}
  135.3171646762, -159.480867585843, 0,   !- X,Y,Z Vertex 2 {m}
  144.276913705523, -160.035995045691, 0, !- X,Y,Z Vertex 3 {m}
  142.26792014734, -194.131442473835, 0,  !- X,Y,Z Vertex 4 {m}
  73.1017221739319, -190.134308899115, 0, !- X,Y,Z Vertex 5 {m}
  75.1947519705459, -153.817680227741, 0, !- X,Y,Z Vertex 6 {m}
  83.0659226207053, -154.261834378408, 0, !- X,Y,Z Vertex 7 {m}
  83.4008046791493, -148.930952232964, 0; !- X,Y,Z Vertex 8 {m}

Shading:Building:Detailed,
  Shading Surface 55,                     !- Name
  ,                                       !- Transmittance Schedule Name
  ,                                       !- Number of Vertices
  135.3171646762, -159.480867585843, 12,  !- X,Y,Z Vertex 1 {m}
  135.3171646762, -159.480867585843, 0,   !- X,Y,Z Vertex 2 {m}
  135.73570296846, -151.92878222398, 0,   !- X,Y,Z Vertex 3 {m}
  135.73570296846, -151.92878222398, 12;  !- X,Y,Z Vertex 4 {m}

Shading:Building:Detailed,
  Shading Surface 56,                     !- Name
  ,                                       !- Transmittance Schedule Name
  ,                                       !- Number of Vertices
  144.276913705523, -160.035995045691, 12, !- X,Y,Z Vertex 1 {m}
  144.276913705523, -160.035995045691, 0, !- X,Y,Z Vertex 2 {m}
  135.3171646762, -159.480867585843, 0,   !- X,Y,Z Vertex 3 {m}
  135.3171646762, -159.480867585843, 12;  !- X,Y,Z Vertex 4 {m}

Shading:Building:Detailed,
  Shading Surface 57,                     !- Name
  ,                                       !- Transmittance Schedule Name
  ,                                       !- Number of Vertices
  73.1017221739319, -190.134308899115, 12, !- X,Y,Z Vertex 1 {m}
  73.1017221739319, -190.134308899115, 0, !- X,Y,Z Vertex 2 {m}
  142.26792014734, -194.131442473835, 0,  !- X,Y,Z Vertex 3 {m}
  142.26792014734, -194.131442473835, 12; !- X,Y,Z Vertex 4 {m}

Shading:Building:Detailed,
  Shading Surface 58,                     !- Name
  ,                                       !- Transmittance Schedule Name
  ,                                       !- Number of Vertices
  83.4008046791493, -148.930952232964, 12, !- X,Y,Z Vertex 1 {m}
  83.0659226207053, -154.261834378408, 12, !- X,Y,Z Vertex 2 {m}
  75.1947519705459, -153.817680227741, 12, !- X,Y,Z Vertex 3 {m}
  73.1017221739319, -190.134308899115, 12, !- X,Y,Z Vertex 4 {m}
  142.26792014734, -194.131442473835, 12, !- X,Y,Z Vertex 5 {m}
  144.276913705523, -160.035995045691, 12, !- X,Y,Z Vertex 6 {m}
  135.3171646762, -159.480867585843, 12,  !- X,Y,Z Vertex 7 {m}
  135.73570296846, -151.92878222398, 12;  !- X,Y,Z Vertex 8 {m}

Shading:Building:Detailed,
  Shading Surface 59,                     !- Name
  ,                                       !- Transmittance Schedule Name
  ,                                       !- Number of Vertices
  135.73570296846, -151.92878222398, 12,  !- X,Y,Z Vertex 1 {m}
  135.73570296846, -151.92878222398, 0,   !- X,Y,Z Vertex 2 {m}
  83.4008046791493, -148.930952232964, 0, !- X,Y,Z Vertex 3 {m}
  83.4008046791493, -148.930952232964, 12; !- X,Y,Z Vertex 4 {m}

Shading:Building:Detailed,
  Shading Surface 60,                     !- Name
  ,                                       !- Transmittance Schedule Name
  ,                                       !- Number of Vertices
  83.4008046791493, -148.930952232964, 12, !- X,Y,Z Vertex 1 {m}
  83.4008046791493, -148.930952232964, 0, !- X,Y,Z Vertex 2 {m}
  83.0659226207053, -154.261834378408, 0, !- X,Y,Z Vertex 3 {m}
  83.0659226207053, -154.261834378408, 12; !- X,Y,Z Vertex 4 {m}

Shading:Building:Detailed,
  Shading Surface 61,                     !- Name
  ,                                       !- Transmittance Schedule Name
  ,                                       !- Number of Vertices
  75.1947519705459, -153.817680227741, 12, !- X,Y,Z Vertex 1 {m}
  75.1947519705459, -153.817680227741, 0, !- X,Y,Z Vertex 2 {m}
  73.1017221739319, -190.134308899115, 0, !- X,Y,Z Vertex 3 {m}
  73.1017221739319, -190.134308899115, 12; !- X,Y,Z Vertex 4 {m}

Shading:Building:Detailed,
  Shading Surface 62,                     !- Name
  ,                                       !- Transmittance Schedule Name
  ,                                       !- Number of Vertices
  83.0659226207053, -154.261834378408, 12, !- X,Y,Z Vertex 1 {m}
  83.0659226207053, -154.261834378408, 0, !- X,Y,Z Vertex 2 {m}
  75.1947519705459, -153.817680227741, 0, !- X,Y,Z Vertex 3 {m}
  75.1947519705459, -153.817680227741, 12; !- X,Y,Z Vertex 4 {m}

Shading:Building:Detailed,
  Shading Surface 63,                     !- Name
  ,                                       !- Transmittance Schedule Name
  ,                                       !- Number of Vertices
  142.26792014734, -194.131442473835, 12, !- X,Y,Z Vertex 1 {m}
  142.26792014734, -194.131442473835, 0,  !- X,Y,Z Vertex 2 {m}
  144.276913705523, -160.035995045691, 0, !- X,Y,Z Vertex 3 {m}
  144.276913705523, -160.035995045691, 12; !- X,Y,Z Vertex 4 {m}

Shading:Building:Detailed,
  Shading Surface 64,                     !- Name
  ,                                       !- Transmittance Schedule Name
  ,                                       !- Number of Vertices
  20.4312014500964, -34.7617475831388, 12, !- X,Y,Z Vertex 1 {m}
  20.4312014500964, -34.7617475831388, 0, !- X,Y,Z Vertex 2 {m}
  21.4360238088159, -37.8714242650698, 0, !- X,Y,Z Vertex 3 {m}
  21.4360238088159, -37.8714242650698, 12; !- X,Y,Z Vertex 4 {m}

Shading:Building:Detailed,
  Shading Surface 65,                     !- Name
  ,                                       !- Transmittance Schedule Name
  ,                                       !- Number of Vertices
  60.3724148777249, -21.4343271666159, 12, !- X,Y,Z Vertex 1 {m}
  60.3724148777249, -21.4343271666159, 0, !- X,Y,Z Vertex 2 {m}
  58.5302151290376, -15.7702828509007, 0, !- X,Y,Z Vertex 3 {m}
  58.5302151290376, -15.7702828509007, 12; !- X,Y,Z Vertex 4 {m}

Shading:Building:Detailed,
  Shading Surface 66,                     !- Name
  ,                                       !- Transmittance Schedule Name
  ,                                       !- Number of Vertices
  51.8316657951758, -42.0915504391551, 12, !- X,Y,Z Vertex 1 {m}
  51.8316657951758, -42.0915504391551, 0, !- X,Y,Z Vertex 2 {m}
  52.1665759589019, -38.2044485954858, 0, !- X,Y,Z Vertex 3 {m}
  52.1665759589019, -38.2044485954858, 12; !- X,Y,Z Vertex 4 {m}

Shading:Building:Detailed,
  Shading Surface 67,                     !- Name
  ,                                       !- Transmittance Schedule Name
  ,                                       !- Number of Vertices
  56.7723796901401, -90.4026046758393, 12, !- X,Y,Z Vertex 1 {m}
  56.7723796901401, -90.4026046758393, 0, !- X,Y,Z Vertex 2 {m}
  47.8125434446701, -62.5266147000208, 0, !- X,Y,Z Vertex 3 {m}
  47.8125434446701, -62.5266147000208, 12; !- X,Y,Z Vertex 4 {m}

Shading:Building:Detailed,
  Shading Surface 68,                     !- Name
  ,                                       !- Transmittance Schedule Name
  ,                                       !- Number of Vertices
  58.5302151290376, -15.7702828509007, 12, !- X,Y,Z Vertex 1 {m}
  58.5302151290376, -15.7702828509007, 0, !- X,Y,Z Vertex 2 {m}
  24.3666475200438, -13.2160979674907, 0, !- X,Y,Z Vertex 3 {m}
  24.3666475200438, -13.2160979674907, 12; !- X,Y,Z Vertex 4 {m}

Shading:Building:Detailed,
  Shading Surface 69,                     !- Name
  ,                                       !- Transmittance Schedule Name
  ,                                       !- Number of Vertices
  24.3666475200438, -13.2160979674907, 12, !- X,Y,Z Vertex 1 {m}
  24.3666475200438, -13.2160979674907, 0, !- X,Y,Z Vertex 2 {m}
  22.8594975375731, -33.9843204544556, 0, !- X,Y,Z Vertex 3 {m}
  22.8594975375731, -33.9843204544556, 12; !- X,Y,Z Vertex 4 {m}

Shading:Building:Detailed,
  Shading Surface 70,                     !- Name
  ,                                       !- Transmittance Schedule Name
  ,                                       !- Number of Vertices
  21.4360238088159, -37.8714242650698, 12, !- X,Y,Z Vertex 1 {m}
  21.4360238088159, -37.8714242650698, 0, !- X,Y,Z Vertex 2 {m}
  16.7470351337021, -99.2876051136469, 0, !- X,Y,Z Vertex 3 {m}
  16.7470351337021, -99.2876051136469, 12; !- X,Y,Z Vertex 4 {m}

Shading:Building:Detailed,
  Shading Surface 71,                     !- Name
  ,                                       !- Transmittance Schedule Name
  ,                                       !- Number of Vertices
  38.5181743306745, -98.0658626165797, 12, !- X,Y,Z Vertex 1 {m}
  38.5181743306745, -98.0658626165797, 0, !- X,Y,Z Vertex 2 {m}
  56.1025676947613, -99.2874078527237, 0, !- X,Y,Z Vertex 3 {m}
  56.1025676947613, -99.2874078527237, 12; !- X,Y,Z Vertex 4 {m}

Shading:Building:Detailed,
  Shading Surface 72,                     !- Name
  ,                                       !- Transmittance Schedule Name
  ,                                       !- Number of Vertices
  24.3666475200438, -13.2160979674907, 12, !- X,Y,Z Vertex 1 {m}
  22.8594975375731, -33.9843204544556, 12, !- X,Y,Z Vertex 2 {m}
  20.4312014500964, -34.7617475831388, 12, !- X,Y,Z Vertex 3 {m}
  21.4360238088159, -37.8714242650698, 12, !- X,Y,Z Vertex 4 {m}
  16.7470351337021, -99.2876051136469, 12, !- X,Y,Z Vertex 5 {m}
  38.3507192452675, -100.953422821733, 12, !- X,Y,Z Vertex 6 {m}
  38.5181743306745, -98.0658626165797, 12, !- X,Y,Z Vertex 7 {m}
  56.1025676947613, -99.2874078527237, 12, !- X,Y,Z Vertex 8 {m}
  56.7723796901401, -90.4026046758393, 12, !- X,Y,Z Vertex 9 {m}
  47.8125434446701, -62.5266147000208, 12, !- X,Y,Z Vertex 10 {m}
  41.1974948813765, -61.9713553097395, 12, !- X,Y,Z Vertex 11 {m}
  41.9510479692471, -51.6427727373213, 12, !- X,Y,Z Vertex 12 {m}
  44.6305573875878, -51.8648767384275, 12, !- X,Y,Z Vertex 13 {m}
  45.2166521109221, -44.2017343013164, 12, !- X,Y,Z Vertex 14 {m}
  51.8316657951758, -42.0915504391551, 12, !- X,Y,Z Vertex 15 {m}
  52.1665759589019, -38.2044485954858, 12, !- X,Y,Z Vertex 16 {m}
  56.7719606299639, -36.7606342755724, 12, !- X,Y,Z Vertex 17 {m}
  57.0231369807153, -33.3177727698703, 12, !- X,Y,Z Vertex 18 {m}
  59.5351630771821, -32.5403327253513, 12, !- X,Y,Z Vertex 19 {m}
  60.3724148777249, -21.4343271666159, 12, !- X,Y,Z Vertex 20 {m}
  58.5302151290376, -15.7702828509007, 12; !- X,Y,Z Vertex 21 {m}

Shading:Building:Detailed,
  Shading Surface 73,                     !- Name
  ,                                       !- Transmittance Schedule Name
  ,                                       !- Number of Vertices
  22.8594975375731, -33.9843204544556, 12, !- X,Y,Z Vertex 1 {m}
  22.8594975375731, -33.9843204544556, 0, !- X,Y,Z Vertex 2 {m}
  20.4312014500964, -34.7617475831388, 0, !- X,Y,Z Vertex 3 {m}
  20.4312014500964, -34.7617475831388, 12; !- X,Y,Z Vertex 4 {m}

Shading:Building:Detailed,
  Shading Surface 74,                     !- Name
  ,                                       !- Transmittance Schedule Name
  ,                                       !- Number of Vertices
  38.3507192452675, -100.953422821733, 12, !- X,Y,Z Vertex 1 {m}
  38.3507192452675, -100.953422821733, 0, !- X,Y,Z Vertex 2 {m}
  38.5181743306745, -98.0658626165797, 0, !- X,Y,Z Vertex 3 {m}
  38.5181743306745, -98.0658626165797, 12; !- X,Y,Z Vertex 4 {m}

Shading:Building:Detailed,
  Shading Surface 75,                     !- Name
  ,                                       !- Transmittance Schedule Name
  ,                                       !- Number of Vertices
  16.7470351337021, -99.2876051136469, 12, !- X,Y,Z Vertex 1 {m}
  16.7470351337021, -99.2876051136469, 0, !- X,Y,Z Vertex 2 {m}
  38.3507192452675, -100.953422821733, 0, !- X,Y,Z Vertex 3 {m}
  38.3507192452675, -100.953422821733, 12; !- X,Y,Z Vertex 4 {m}

Shading:Building:Detailed,
  Shading Surface 76,                     !- Name
  ,                                       !- Transmittance Schedule Name
  ,                                       !- Number of Vertices
  57.0231369807153, -33.3177727698703, 12, !- X,Y,Z Vertex 1 {m}
  57.0231369807153, -33.3177727698703, 0, !- X,Y,Z Vertex 2 {m}
  59.5351630771821, -32.5403327253513, 0, !- X,Y,Z Vertex 3 {m}
  59.5351630771821, -32.5403327253513, 12; !- X,Y,Z Vertex 4 {m}

Shading:Building:Detailed,
  Shading Surface 77,                     !- Name
  ,                                       !- Transmittance Schedule Name
  ,                                       !- Number of Vertices
  52.1665759589019, -38.2044485954858, 12, !- X,Y,Z Vertex 1 {m}
  52.1665759589019, -38.2044485954858, 0, !- X,Y,Z Vertex 2 {m}
  56.7719606299639, -36.7606342755724, 0, !- X,Y,Z Vertex 3 {m}
  56.7719606299639, -36.7606342755724, 12; !- X,Y,Z Vertex 4 {m}

Shading:Building:Detailed,
  Shading Surface 78,                     !- Name
  ,                                       !- Transmittance Schedule Name
  ,                                       !- Number of Vertices
  58.5302151290376, -15.7702828509007, 0, !- X,Y,Z Vertex 1 {m}
  60.3724148777249, -21.4343271666159, 0, !- X,Y,Z Vertex 2 {m}
  59.5351630771821, -32.5403327253513, 0, !- X,Y,Z Vertex 3 {m}
  57.0231369807153, -33.3177727698703, 0, !- X,Y,Z Vertex 4 {m}
  56.7719606299639, -36.7606342755724, 0, !- X,Y,Z Vertex 5 {m}
  52.1665759589019, -38.2044485954858, 0, !- X,Y,Z Vertex 6 {m}
  51.8316657951758, -42.0915504391551, 0, !- X,Y,Z Vertex 7 {m}
  45.2166521109221, -44.2017343013164, 0, !- X,Y,Z Vertex 8 {m}
  44.6305573875878, -51.8648767384275, 0, !- X,Y,Z Vertex 9 {m}
  41.9510479692471, -51.6427727373213, 0, !- X,Y,Z Vertex 10 {m}
  41.1974948813765, -61.9713553097395, 0, !- X,Y,Z Vertex 11 {m}
  47.8125434446701, -62.5266147000208, 0, !- X,Y,Z Vertex 12 {m}
  56.7723796901401, -90.4026046758393, 0, !- X,Y,Z Vertex 13 {m}
  56.1025676947613, -99.2874078527237, 0, !- X,Y,Z Vertex 14 {m}
  38.5181743306745, -98.0658626165797, 0, !- X,Y,Z Vertex 15 {m}
  38.3507192452675, -100.953422821733, 0, !- X,Y,Z Vertex 16 {m}
  16.7470351337021, -99.2876051136469, 0, !- X,Y,Z Vertex 17 {m}
  21.4360238088159, -37.8714242650698, 0, !- X,Y,Z Vertex 18 {m}
  20.4312014500964, -34.7617475831388, 0, !- X,Y,Z Vertex 19 {m}
  22.8594975375731, -33.9843204544556, 0, !- X,Y,Z Vertex 20 {m}