    ConvergenceLimits,
      0,                       !- Minimum System Timestep {minutes}
      25;                      !- Maximum HVAC Iterations
    
Version,
  22.2;                                   !- Version Identifier

Timestep,
  1;                                      !- Number of Timesteps per Hour

LifeCycleCost:Parameters,
  Life Cycle Cost Parameters,             !- Name
  EndOfYear,                              !- Discounting Convention
  ConstantDollar,                         !- Inflation Approach
  0.03,                                   !- Real Discount Rate
  ,                                       !- Nominal Discount Rate
  ,                                       !- Inflation
  ,                                       !- Base Date Month
  2011,                                   !- Base Date Year
  ,                                       !- Service Date Month
  2011,                                   !- Service Date Year
  25,                                     !- Length of Study Period in Years
  ,                                       !- Tax rate
  None;                                   !- Depreciation Method

LifeCycleCost:UsePriceEscalation,
  U.S. Avg  Commercial-Electricity,       !- Name
  Electricity,                            !- Resource
  2011,                                   !- Escalation Start Year
  January,                                !- Escalation Start Month
  0.9838,                                 !- Year Escalation 1
  0.9730,                                 !- Year Escalation 2
  0.9632,                                 !- Year Escalation 3
  0.9611,                                 !- Year Escalation 4
  0.9571,                                 !- Year Escalation 5
  0.9553,                                 !- Year Escalation 6
  0.9539,                                 !- Year Escalation 7
  0.9521,                                 !- Year Escalation 8
  0.9546,                                 !- Year Escalation 9
  0.9550,                                 !- Year Escalation 10
  0.9553,                                 !- Year Escalation 11
  0.9564,                                 !- Year Escalation 12
  0.9575,                                 !- Year Escalation 13
  0.9596,                                 !- Year Escalation 14
  0.9618,                                 !- Year Escalation 15
  0.9614,                                 !- Year Escalation 16
  0.9618,                                 !- Year Escalation 17
  0.9618,                                 !- Year Escalation 18
  0.9593,                                 !- Year Escalation 19
  0.9589,                                 !- Year Escalation 20
  0.9607,                                 !- Year Escalation 21
  0.9625,                                 !- Year Escalation 22
  0.9650,                                 !- Year Escalation 23
  0.9708,                                 !- Year Escalation 24
  0.9751,                                 !- Year Escalation 25
  0.9762,                                 !- Year Escalation 26
  0.9766,                                 !- Year Escalation 27
  0.9766,                                 !- Year Escalation 28
  0.9769,                                 !- Year Escalation 29
  0.9773;                                 !- Year Escalation 30

LifeCycleCost:UsePriceEscalation,
  U.S. Avg  Commercial-Distillate Oil,    !- Name
  FuelOilNo1,                             !- Resource
  2011,                                   !- Escalation Start Year
  January,                                !- Escalation Start Month
  0.9714,                                 !- Year Escalation 1
  0.9730,                                 !- Year Escalation 2
  0.9942,                                 !- Year Escalation 3
  1.0164,                                 !- Year Escalation 4
  1.0541,                                 !- Year Escalation 5
  1.0928,                                 !- Year Escalation 6
  1.1267,                                 !- Year Escalation 7
  1.1580,                                 !- Year Escalation 8
  1.1792,                                 !- Year Escalation 9
  1.1967,                                 !- Year Escalation 10
  1.2200,                                 !- Year Escalation 11
  1.2333,                                 !- Year Escalation 12
  1.2566,                                 !- Year Escalation 13
  1.2709,                                 !- Year Escalation 14
  1.2826,                                 !- Year Escalation 15
  1.2985,                                 !- Year Escalation 16
  1.3102,                                 !- Year Escalation 17
  1.3250,                                 !- Year Escalation 18
  1.3261,                                 !- Year Escalation 19
  1.3282,                                 !- Year Escalation 20
  1.3324,                                 !- Year Escalation 21
  1.3356,                                 !- Year Escalation 22
  1.3431,                                 !- Year Escalation 23
  1.3510,                                 !- Year Escalation 24
  1.3568,                                 !- Year Escalation 25
  1.3606,                                 !- Year Escalation 26
  1.3637,                                 !- Year Escalation 27
  1.3674,                                 !- Year Escalation 28
  1.3706,                                 !- Year Escalation 29
  1.3743;                                 !- Year Escalation 30

LifeCycleCost:UsePriceEscalation,
  U.S. Avg  Commercial-Residual Oil,      !- Name
  FuelOilNo2,                             !- Resource
  2011,                                   !- Escalation Start Year
  January,                                !- Escalation Start Month
  0.8469,                                 !- Year Escalation 1
  0.8257,                                 !- Year Escalation 2
  0.8681,                                 !- Year Escalation 3
  0.8988,                                 !- Year Escalation 4
  0.9289,                                 !- Year Escalation 5
  0.9604,                                 !- Year Escalation 6
  0.9897,                                 !- Year Escalation 7
  1.0075,                                 !- Year Escalation 8
  1.0314,                                 !- Year Escalation 9
  1.0554,                                 !- Year Escalation 10
  1.0861,                                 !- Year Escalation 11
  1.1278,                                 !- Year Escalation 12
  1.1497,                                 !- Year Escalation 13
  1.1620,                                 !- Year Escalation 14
  1.1743,                                 !- Year Escalation 15
  1.1852,                                 !- Year Escalation 16
  1.1948,                                 !- Year Escalation 17
  1.2037,                                 !- Year Escalation 18
  1.2071,                                 !- Year Escalation 19
  1.2119,                                 !- Year Escalation 20
  1.2139,                                 !- Year Escalation 21
  1.2194,                                 !- Year Escalation 22
  1.2276,                                 !- Year Escalation 23
  1.2365,                                 !- Year Escalation 24
  1.2420,                                 !- Year Escalation 25
  1.2461,                                 !- Year Escalation 26
  1.2509,                                 !- Year Escalation 27
  1.2550,                                 !- Year Escalation 28
  1.2591,                                 !- Year Escalation 29
  1.2638;                                 !- Year Escalation 30

LifeCycleCost:UsePriceEscalation,
  U.S. Avg  Commercial-Natural gas,       !- Name
  NaturalGas,                             !- Resource
  2011,                                   !- Escalation Start Year
  January,                                !- Escalation Start Month
  0.9823,                                 !- Year Escalation 1
  0.9557,                                 !- Year Escalation 2
  0.9279,                                 !- Year Escalation 3
  0.9257,                                 !- Year Escalation 4
  0.9346,                                 !- Year Escalation 5
  0.9412,                                 !- Year Escalation 6
  0.9512,                                 !- Year Escalation 7
  0.9645,                                 !- Year Escalation 8
  0.9856,                                 !- Year Escalation 9
  1.0067,                                 !- Year Escalation 10
  1.0222,                                 !- Year Escalation 11
  1.0410,                                 !- Year Escalation 12
  1.0610,                                 !- Year Escalation 13
  1.0787,                                 !- Year Escalation 14
  1.0942,                                 !- Year Escalation 15
  1.1098,                                 !- Year Escalation 16
  1.1220,                                 !- Year Escalation 17
  1.1308,                                 !- Year Escalation 18
  1.1386,                                 !- Year Escalation 19
  1.1486,                                 !- Year Escalation 20
  1.1619,                                 !- Year Escalation 21
  1.1763,                                 !- Year Escalation 22
  1.1918,                                 !- Year Escalation 23
  1.2118,                                 !- Year Escalation 24
  1.2284,                                 !- Year Escalation 25
  1.2439,                                 !- Year Escalation 26
  1.2605,                                 !- Year Escalation 27
  1.2772,                                 !- Year Escalation 28
  1.2938,                                 !- Year Escalation 29
  1.3115;                                 !- Year Escalation 30

LifeCycleCost:UsePriceEscalation,
  U.S. Avg  Commercial-Coal,              !- Name
  Coal,                                   !- Resource
  2011,                                   !- Escalation Start Year
  January,                                !- Escalation Start Month
  0.9970,                                 !- Year Escalation 1
  1.0089,                                 !- Year Escalation 2
  1.0089,                                 !- Year Escalation 3
  0.9941,                                 !- Year Escalation 4
  0.9941,                                 !- Year Escalation 5
  1.0000,                                 !- Year Escalation 6
  1.0030,                                 !- Year Escalation 7
  1.0059,                                 !- Year Escalation 8
  1.0089,                                 !- Year Escalation 9
  1.0119,                                 !- Year Escalation 10
  1.0148,                                 !- Year Escalation 11
  1.0178,                                 !- Year Escalation 12
  1.0208,                                 !- Year Escalation 13
  1.0267,                                 !- Year Escalation 14
  1.0297,                                 !- Year Escalation 15
  1.0356,                                 !- Year Escalation 16
  1.0415,                                 !- Year Escalation 17
  1.0534,                                 !- Year Escalation 18
  1.0564,                                 !- Year Escalation 19
  1.0593,                                 !- Year Escalation 20
  1.0653,                                 !- Year Escalation 21
  1.0712,                                 !- Year Escalation 22
  1.0742,                                 !- Year Escalation 23
  1.0801,                                 !- Year Escalation 24
  1.0831,                                 !- Year Escalation 25
  1.0831,                                 !- Year Escalation 26
  1.0861,                                 !- Year Escalation 27
  1.0890,                                 !- Year Escalation 28
  1.0920,                                 !- Year Escalation 29
  1.0950;                                 !- Year Escalation 30

Building,
  bld_5,                                  !- Name
  ,                                       !- North Axis {deg}
  City,                                   !- Terrain
  ,                                       !- Loads Convergence Tolerance Value {W}
  ,                                       !- Temperature Convergence Tolerance Value {deltaC}
  ,                                       !- Solar Distribution
  ,                                       !- Maximum Number of Warmup Days
  ;                                       !- Minimum Number of Warmup Days

Shading:Building:Detailed,
  Shading Surface 42,                     !- Name
  ,                                       !- Transmittance Schedule Name
  ,                                       !- Number of Vertices
  144.780008200506, -1.99763710186556, 12, !- X,Y,Z Vertex 1 {m}
  144.780008200506, -1.99763710186556, 0, !- X,Y,Z Vertex 2 {m}
  146.788989973087, 32.097811032459, 0,   !- X,Y,Z Vertex 3 {m}
  146.788989973087, 32.097811032459, 12;  !- X,Y,Z Vertex 4 {m}

Shading:Building:Detailed,
  Shading Surface 43,                     !- Name
  ,                                       !- Transmittance Schedule Name
  ,                                       !- Number of Vertices
  146.788989973087, 32.097811032459, 12,  !- X,Y,Z Vertex 1 {m}
  146.788989973087, 32.097811032459, 0,   !- X,Y,Z Vertex 2 {m}
  137.829240751954, 32.6529354013368, 0,  !- X,Y,Z Vertex 3 {m}
  137.829240751954, 32.6529354013368, 12; !- X,Y,Z Vertex 4 {m}

Shading:Building:Detailed,
  Shading Surface 44,                     !- Name
  ,                                       !- Transmittance Schedule Name
  ,                                       !- Number of Vertices
  75.6138088459026, 1.99947260165317, 12, !- X,Y,Z Vertex 1 {m}
  75.6138088459026, 1.99947260165317, 0,  !- X,Y,Z Vertex 2 {m}
  144.780008200506, -1.99763710186556, 0, !- X,Y,Z Vertex 3 {m}
  144.780008200506, -1.99763710186556, 12; !- X,Y,Z Vertex 4 {m}

Shading:Building:Detailed,
  Shading Surface 45,                     !- Name
  ,                                       !- Transmittance Schedule Name
  ,                                       !- Number of Vertices
  85.5779968927769, 37.8719505759, 12,    !- X,Y,Z Vertex 1 {m}
  85.5779968927769, 37.8719505759, 0,     !- X,Y,Z Vertex 2 {m}
  77.706826089128, 38.3161020088564, 0,   !- X,Y,Z Vertex 3 {m}
  77.706826089128, 38.3161020088564, 12;  !- X,Y,Z Vertex 4 {m}

Shading:Building:Detailed,
  Shading Surface 46,                     !- Name
  ,                                       !- Transmittance Schedule Name
  ,                                       !- Number of Vertices
  85.9128771085143, 43.2028328383723, 12, !- X,Y,Z Vertex 1 {m}
  85.9128771085143, 43.2028328383723, 0,  !- X,Y,Z Vertex 2 {m}
  85.5779968927769, 37.8719505759, 0,     !- X,Y,Z Vertex 3 {m}
  85.5779968927769, 37.8719505759, 12;    !- X,Y,Z Vertex 4 {m}

Shading:Building:Detailed,
  Shading Surface 47,                     !- Name
  ,                                       !- Transmittance Schedule Name
  ,                                       !- Number of Vertices
  77.706826089128, 38.3161020088564, 12,  !- X,Y,Z Vertex 1 {m}
  77.706826089128, 38.3161020088564, 0,   !- X,Y,Z Vertex 2 {m}
  75.6138088459026, 1.99947260165317, 0,  !- X,Y,Z Vertex 3 {m}
  75.6138088459026, 1.99947260165317, 12; !- X,Y,Z Vertex 4 {m}

Shading:Building:Detailed,
  Shading Surface 48,                     !- Name
  ,                                       !- Transmittance Schedule Name
  ,                                       !- Number of Vertices
  138.247776433713, 40.2050209097418, 12, !- X,Y,Z Vertex 1 {m}
  138.247776433713, 40.2050209097418, 0,  !- X,Y,Z Vertex 2 {m}
  85.9128771085143, 43.2028328383723, 0,  !- X,Y,Z Vertex 3 {m}
  85.9128771085143, 43.2028328383723, 12; !- X,Y,Z Vertex 4 {m}

Shading:Building:Detailed,
  Shading Surface 49,                     !- Name
  ,                                       !- Transmittance Schedule Name
  ,                                       !- Number of Vertices
  85.9128771085143, 43.2028328383723, 12, !- X,Y,Z Vertex 1 {m}
  85.5779968927769, 37.8719505759, 12,    !- X,Y,Z Vertex 2 {m}
  77.706826089128, 38.3161020088564, 12,  !- X,Y,Z Vertex 3 {m}
  75.6138088459026, 1.99947260165317, 12, !- X,Y,Z Vertex 4 {m}
  144.780008200506, -1.99763710186556, 12, !- X,Y,Z Vertex 5 {m}
  146.788989973087, 32.097811032459, 12,  !- X,Y,Z Vertex 6 {m}
  137.829240751954, 32.6529354013368, 12, !- X,Y,Z Vertex 7 {m}
  138.247776433713, 40.2050209097418, 12; !- X,Y,Z Vertex 8 {m}

Shading:Building:Detailed,
  Shading Surface 50,                     !- Name
  ,                                       !- Transmittance Schedule Name
  ,                                       !- Number of Vertices
  138.247776433713, 40.2050209097418, 0,  !- X,Y,Z Vertex 1 {m}
  137.829240751954, 32.6529354013368, 0,  !- X,Y,Z Vertex 2 {m}
  146.788989973087, 32.097811032459, 0,   !- X,Y,Z Vertex 3 {m}
  144.780008200506, -1.99763710186556, 0, !- X,Y,Z Vertex 4 {m}
  75.6138088459026, 1.99947260165317, 0,  !- X,Y,Z Vertex 5 {m}
  77.706826089128, 38.3161020088564, 0,   !- X,Y,Z Vertex 6 {m}
  85.5779968927769, 37.8719505759, 0,     !- X,Y,Z Vertex 7 {m}
  85.9128771085143, 43.2028328383723, 0;  !- X,Y,Z Vertex 8 {m}

Shading:Building:Detailed,
  Shading Surface 51,                     !- Name
  ,                                       !- Transmittance Schedule Name
  ,                                       !- Number of Vertices
  137.829240751954, 32.6529354013368, 12, !- X,Y,Z Vertex 1 {m}
  137.829240751954, 32.6529354013368, 0,  !- X,Y,Z Vertex 2 {m}
  138.247776433713, 40.2050209097418, 0,  !- X,Y,Z Vertex 3 {m}
  138.247776433713, 40.2050209097418, 12; !- X,Y,Z Vertex 4 {m}

Shading:Building:Detailed,
  Shading Surface 52,                     !- Name
  ,                                       !- Transmittance Schedule Name
  ,                                       !- Number of Vertices
  206.159710567173, -37.8685203472701, 12, !- X,Y,Z Vertex 1 {m}
  206.159710567173, -37.8685203472701, 0, !- X,Y,Z Vertex 2 {m}
  205.155303031323, -53.1948218457705, 0, !- X,Y,Z Vertex 3 {m}
  205.155303031323, -53.1948218457705, 12; !- X,Y,Z Vertex 4 {m}

Shading:Building:Detailed,
  Shading Surface 53,                     !- Name
  ,                                       !- Transmittance Schedule Name
  ,                                       !- Number of Vertices
  241.663901124743, -32.9807885879905, 12, !- X,Y,Z Vertex 1 {m}
  241.663901124743, -32.9807885879905, 0, !- X,Y,Z Vertex 2 {m}
  222.404439894768, -31.7597440264902, 0, !- X,Y,Z Vertex 3 {m}
  222.404439894768, -31.7597440264902, 12; !- X,Y,Z Vertex 4 {m}

Shading:Building:Detailed,
  Shading Surface 54,                     !- Name
  ,                                       !- Transmittance Schedule Name
  ,                                       !- Number of Vertices
  259.333169246674, -56.5248889525025, 12, !- X,Y,Z Vertex 1 {m}
  259.333169246674, -56.5248889525025, 0, !- X,Y,Z Vertex 2 {m}
  260.253750132279, -41.8649427480072, 0, !- X,Y,Z Vertex 3 {m}
  260.253750132279, -41.8649427480072, 12; !- X,Y,Z Vertex 4 {m}

Shading:Building:Detailed,
  Shading Surface 55,                     !- Name
  ,                                       !- Transmittance Schedule Name
  ,                                       !- Number of Vertices
  241.245472376462, -40.6439391337844, 12, !- X,Y,Z Vertex 1 {m}
  241.245472376462, -40.6439391337844, 0, !- X,Y,Z Vertex 2 {m}
  241.663901124743, -32.9807885879905, 0, !- X,Y,Z Vertex 3 {m}
  241.663901124743, -32.9807885879905, 12; !- X,Y,Z Vertex 4 {m}

Shading:Building:Detailed,
  Shading Surface 56,                     !- Name
  ,                                       !- Transmittance Schedule Name
  ,                                       !- Number of Vertices
  205.155303031323, -53.1948218457705, 12, !- X,Y,Z Vertex 1 {m}
  205.155303031323, -53.1948218457705, 0, !- X,Y,Z Vertex 2 {m}
  259.333169246674, -56.5248889525025, 0, !- X,Y,Z Vertex 3 {m}
  259.333169246674, -56.5248889525025, 12; !- X,Y,Z Vertex 4 {m}

Shading:Building:Detailed,
  Shading Surface 57,                     !- Name
  ,                                       !- Transmittance Schedule Name
  ,                                       !- Number of Vertices
  241.663901124743, -32.9807885879905, 0, !- X,Y,Z Vertex 1 {m}
  241.245472376462, -40.6439391337844, 0, !- X,Y,Z Vertex 2 {m}
  260.253750132279, -41.8649427480072, 0, !- X,Y,Z Vertex 3 {m}
  259.333169246674, -56.5248889525025, 0, !- X,Y,Z Vertex 4 {m}
  205.155303031323, -53.1948218457705, 0, !- X,Y,Z Vertex 5 {m}
  206.159710567173, -37.8685203472701, 0, !- X,Y,Z Vertex 6 {m}
  221.985973946016, -38.8675937228999, 0, !- X,Y,Z Vertex 7 {m}
  222.404439894768, -31.7597440264902, 0; !- X,Y,Z Vertex 8 {m}

Shading:Building:Detailed,
  Shading Surface 58,                     !- Name
  ,                                       !- Transmittance Schedule Name
  ,                                       !- Number of Vertices
  222.404439894768, -31.7597440264902, 12, !- X,Y,Z Vertex 1 {m}
  222.404439894768, -31.7597440264902, 0, !- X,Y,Z Vertex 2 {m}
  221.985973946016, -38.8675937228999, 0, !- X,Y,Z Vertex 3 {m}
  221.985973946016, -38.8675937228999, 12; !- X,Y,Z Vertex 4 {m}

Shading:Building:Detailed,
  Shading Surface 59,                     !- Name
  ,                                       !- Transmittance Schedule Name
  ,                                       !- Number of Vertices
  222.404439894768, -31.7597440264902, 12, !- X,Y,Z Vertex 1 {m}
  221.985973946016, -38.8675937228999, 12, !- X,Y,Z Vertex 2 {m}
  206.159710567173, -37.8685203472701, 12, !- X,Y,Z Vertex 3 {m}
  205.155303031323, -53.1948218457705, 12, !- X,Y,Z Vertex 4 {m}
  259.333169246674, -56.5248889525025, 12, !- X,Y,Z Vertex 5 {m}
  260.253750132279, -41.8649427480072, 12, !- X,Y,Z Vertex 6 {m}
  241.245472376462, -40.6439391337844, 12, !- X,Y,Z Vertex 7 {m}
  241.663901124743, -32.9807885879905, 12; !- X,Y,Z Vertex 8 {m}

Shading:Building:Detailed,
  Shading Surface 60,                     !- Name
  ,                                       !- Transmittance Schedule Name
  ,                                       !- Number of Vertices
  221.985973946016, -38.8675937228999, 12, !- X,Y,Z Vertex 1 {m}
  221.985973946016, -38.8675937228999, 0, !- X,Y,Z Vertex 2 {m}
  206.159710567173, -37.8685203472701, 0, !- X,Y,Z Vertex 3 {m}
  206.159710567173, -37.8685203472701, 12; !- X,Y,Z Vertex 4 {m}

Shading:Building:Detailed,
  Shading Surface 61,                     !- Name
  ,                                       !- Transmittance Schedule Name
  ,                                       !- Number of Vertices
  260.253750132279, -41.8649427480072, 12, !- X,Y,Z Vertex 1 {m}
  260.253750132279, -41.8649427480072, 0, !- X,Y,Z Vertex 2 {m}
  241.245472376462, -40.6439391337844, 0, !- X,Y,Z Vertex 3 {m}
  241.245472376462, -40.6439391337844, 12; !- X,Y,Z Vertex 4 {m}

Shading:Building:Detailed,
  Shading Surface 62,                     !- Name
  ,                                       !- Transmittance Schedule Name
  ,                                       !- Number of Vertices
  59.5351694462181, 158.816003189705, 12, !- X,Y,Z Vertex 1 {m}
  59.5351694462181, 158.816003189705, 0,  !- X,Y,Z Vertex 2 {m}
  62.0471952739353, 159.593444101615, 0,  !- X,Y,Z Vertex 3 {m}
  62.0471952739353, 159.593444101615, 12; !- X,Y,Z Vertex 4 {m}

Shading:Building:Detailed,
  Shading Surface 63,                     !- Name
  ,                                       !- Transmittance Schedule Name
  ,                                       !- Number of Vertices
  50.3245860068952, 129.607158084746, 12, !- X,Y,Z Vertex 1 {m}
  50.3245860068952, 129.607158084746, 0,  !- X,Y,Z Vertex 2 {m}
  43.7095372516833, 130.162415189748, 0,  !- X,Y,Z Vertex 3 {m}
  43.7095372516833, 130.162415189748, 12; !- X,Y,Z Vertex 4 {m}

Shading:Building:Detailed,
  Shading Surface 64,                     !- Name
  ,                                       !- Transmittance Schedule Name
  ,                                       !- Number of Vertices
  47.7286883387552, 147.932037583002, 12, !- X,Y,Z Vertex 1 {m}
  47.7286883387552, 147.932037583002, 0,  !- X,Y,Z Vertex 2 {m}
  54.3437012935553, 150.042223729684, 0,  !- X,Y,Z Vertex 3 {m}
  54.3437012935553, 150.042223729684, 12; !- X,Y,Z Vertex 4 {m}

Shading:Building:Detailed,
  Shading Surface 65,                     !- Name
  ,                                       !- Transmittance Schedule Name
  ,                                       !- Number of Vertices
  41.0302291777926, 94.0679069600204, 12, !- X,Y,Z Vertex 1 {m}
  41.0302291777926, 94.0679069600204, 0,  !- X,Y,Z Vertex 2 {m}
  58.6146229640765, 92.846367798212, 0,   !- X,Y,Z Vertex 3 {m}
  58.6146229640765, 92.846367798212, 12;  !- X,Y,Z Vertex 4 {m}

Shading:Building:Detailed,
  Shading Surface 66,                     !- Name
  ,                                       !- Transmittance Schedule Name
  ,                                       !- Number of Vertices
  23.9480578484848, 154.262339401245, 12, !- X,Y,Z Vertex 1 {m}
  23.9480578484848, 154.262339401245, 0,  !- X,Y,Z Vertex 2 {m}
  19.2590904031792, 92.8461569402934, 0,  !- X,Y,Z Vertex 3 {m}
  19.2590904031792, 92.8461569402934, 12; !- X,Y,Z Vertex 4 {m}

Shading:Building:Detailed,
  Shading Surface 67,                     !- Name
  ,                                       !- Transmittance Schedule Name
  ,                                       !- Number of Vertices
  61.0422415288261, 176.363493623249, 0,  !- X,Y,Z Vertex 1 {m}
  62.8844432354206, 170.69944994588, 0,   !- X,Y,Z Vertex 2 {m}
  62.0471952739353, 159.593444101615, 0,  !- X,Y,Z Vertex 3 {m}
  59.5351694462181, 158.816003189705, 0,  !- X,Y,Z Vertex 4 {m}
  59.2839942855727, 155.373141598246, 0,  !- X,Y,Z Vertex 5 {m}
  54.6786101136145, 153.929325688006, 0,  !- X,Y,Z Vertex 6 {m}
  54.3437012935553, 150.042223729684, 0,  !- X,Y,Z Vertex 7 {m}
  47.7286883387552, 147.932037583002, 0,  !- X,Y,Z Vertex 8 {m}
  47.1425962643597, 140.26889494517, 0,   !- X,Y,Z Vertex 9 {m}
  44.4630867692514, 140.49099802057, 0,   !- X,Y,Z Vertex 10 {m}
  43.7095372516833, 130.162415189748, 0,  !- X,Y,Z Vertex 11 {m}
  50.3245860068952, 129.607158084746, 0,  !- X,Y,Z Vertex 12 {m}
  59.2844318882472, 101.731171206395, 0,  !- X,Y,Z Vertex 13 {m}
  58.6146229640765, 92.846367798212, 0,   !- X,Y,Z Vertex 14 {m}
  41.0302291777926, 94.0679069600204, 0,  !- X,Y,Z Vertex 15 {m}
  40.8627750905269, 91.1803466969676, 0,  !- X,Y,Z Vertex 16 {m}
  19.2590904031792, 92.8461569402934, 0,  !- X,Y,Z Vertex 17 {m}
  23.9480578484848, 154.262339401245, 0,  !- X,Y,Z Vertex 18 {m}
  22.9432344148351, 157.372015735064, 0,  !- X,Y,Z Vertex 19 {m}
  25.3715302335724, 158.149443702644, 0,  !- X,Y,Z Vertex 20 {m}
  26.8786730370076, 178.917666703265, 0;  !- X,Y,Z Vertex 21 {m}

Shading:Building:Detailed,
  Shading Surface 68,                     !- Name
  ,                                       !- Transmittance Schedule Name
  ,                                       !- Number of Vertices
  59.2844318882472, 101.731171206395, 12, !- X,Y,Z Vertex 1 {m}
  59.2844318882472, 101.731171206395, 0,  !- X,Y,Z Vertex 2 {m}
  50.3245860068952, 129.607158084746, 0,  !- X,Y,Z Vertex 3 {m}
  50.3245860068952, 129.607158084746, 12; !- X,Y,Z Vertex 4 {m}

Shading:Building:Detailed,
  Shading Surface 69,                     !- Name
  ,                                       !- Transmittance Schedule Name
  ,                                       !- Number of Vertices
  59.2839942855727, 155.373141598246, 12, !- X,Y,Z Vertex 1 {m}
  59.2839942855727, 155.373141598246, 0,  !- X,Y,Z Vertex 2 {m}
  59.5351694462181, 158.816003189705, 0,  !- X,Y,Z Vertex 3 {m}
  59.5351694462181, 158.816003189705, 12; !- X,Y,Z Vertex 4 {m}

Shading:Building:Detailed,
  Shading Surface 70,                     !- Name
  ,                                       !- Transmittance Schedule Name
  ,                                       !- Number of Vertices
  40.8627750905269, 91.1803466969676, 12, !- X,Y,Z Vertex 1 {m}
  40.8627750905269, 91.1803466969676, 0,  !- X,Y,Z Vertex 2 {m}
  41.0302291777926, 94.0679069600204, 0,  !- X,Y,Z Vertex 3 {m}
  41.0302291777926, 94.0679069600204, 12; !- X,Y,Z Vertex 4 {m}

Shading:Building:Detailed,
  Shading Surface 71,                     !- Name
  ,                                       !- Transmittance Schedule Name
  ,                                       !- Number of Vertices
  54.6786101136145, 153.929325688006, 12, !- X,Y,Z Vertex 1 {m}
  54.6786101136145, 153.929325688006, 0,  !- X,Y,Z Vertex 2 {m}
  59.2839942855727, 155.373141598246, 0,  !- X,Y,Z Vertex 3 {m}
  59.2839942855727, 155.373141598246, 12; !- X,Y,Z Vertex 4 {m}

Shading:Building:Detailed,
  Shading Surface 72,                     !- Name
  ,                                       !- Transmittance Schedule Name
  ,                                       !- Number of Vertices
  47.1425962643597, 140.26889494517, 12,  !- X,Y,Z Vertex 1 {m}
  47.1425962643597, 140.26889494517, 0,   !- X,Y,Z Vertex 2 {m}
  47.7286883387552, 147.932037583002, 0,  !- X,Y,Z Vertex 3 {m}
  47.7286883387552, 147.932037583002, 12; !- X,Y,Z Vertex 4 {m}

Shading:Building:Detailed,
  Shading Surface 73,                     !- Name
  ,                                       !- Transmittance Schedule Name
  ,                                       !- Number of Vertices
  62.0471952739353, 159.593444101615, 12, !- X,Y,Z Vertex 1 {m}
  62.0471952739353, 159.593444101615, 0,  !- X,Y,Z Vertex 2 {m}
  62.8844432354206, 170.69944994588, 0,   !- X,Y,Z Vertex 3 {m}
  62.8844432354206, 170.69944994588, 12;  !- X,Y,Z Vertex 4 {m}

Shading:Building:Detailed,
  Shading Surface 74,                     !- Name