    ConvergenceLimits,
      0,                       !- Minimum System Timestep {minutes}
      25;                      !- Maximum HVAC Iterations
    
Version,
  22.2;                                   !- Version Identifier

Timestep,
  1;                                      !- Number of Timesteps per Hour

LifeCycleCost:Parameters,
  Life Cycle Cost Parameters,             !- Name
  EndOfYear,                              !- Discounting Convention
  ConstantDollar,                         !- Inflation Approach
  0.03,                                   !- Real Discount Rate
  ,                                       !- Nominal Discount Rate
  ,                                       !- Inflation
  ,                                       !- Base Date Month
  2011,                                   !- Base Date Year
  ,                                       !- Service Date Month
  2011,                                   !- Service Date Year
  25,                                     !- Length of Study Period in Years
  ,                                       !- Tax rate
  None;                                   !- Depreciation Method

LifeCycleCost:UsePriceEscalation,
  U.S. Avg  Commercial-Electricity,       !- Name
  Electricity,                            !- Resource
  2011,                                   !- Escalation Start Year
  January,                                !- Escalation Start Month
  0.9838,                                 !- Year Escalation 1
  0.9730,                                 !- Year Escalation 2
  0.9632,                                 !- Year Escalation 3
  0.9611,                                 !- Year Escalation 4
  0.9571,                                 !- Year Escalation 5
  0.9553,                                 !- Year Escalation 6
  0.9539,                                 !- Year Escalation 7
  0.9521,                                 !- Year Escalation 8
  0.9546,                                 !- Year Escalation 9
  0.9550,                                 !- Year Escalation 10
  0.9553,                                 !- Year Escalation 11
  0.9564,                                 !- Year Escalation 12
  0.9575,                                 !- Year Escalation 13
  0.9596,                                 !- Year Escalation 14
  0.9618,                                 !- Year Escalation 15
  0.9614,                                 !- Year Escalation 16
  0.9618,                                 !- Year Escalation 17
  0.9618,                                 !- Year Escalation 18
  0.9593,                                 !- Year Escalation 19
  0.9589,                                 !- Year Escalation 20
  0.9607,                                 !- Year Escalation 21
  0.9625,                                 !- Year Escalation 22
  0.9650,                                 !- Year Escalation 23
  0.9708,                                 !- Year Escalation 24
  0.9751,                                 !- Year Escalation 25
  0.9762,                                 !- Year Escalation 26
  0.9766,                                 !- Year Escalation 27
  0.9766,                                 !- Year Escalation 28
  0.9769,                                 !- Year Escalation 29
  0.9773;                                 !- Year Escalation 30

LifeCycleCost:UsePriceEscalation,
  U.S. Avg  Commercial-Distillate Oil,    !- Name
  FuelOilNo1,                             !- Resource
  2011,                                   !- Escalation Start Year
  January,                                !- Escalation Start Month
  0.9714,                                 !- Year Escalation 1
  0.9730,                                 !- Year Escalation 2
  0.9942,                                 !- Year Escalation 3
  1.0164,                                 !- Year Escalation 4
  1.0541,                                 !- Year Escalation 5
  1.0928,                                 !- Year Escalation 6
  1.1267,                                 !- Year Escalation 7
  1.1580,                                 !- Year Escalation 8
  1.1792,                                 !- Year Escalation 9
  1.1967,                                 !- Year Escalation 10
  1.2200,                                 !- Year Escalation 11
  1.2333,                                 !- Year Escalation 12
  1.2566,                                 !- Year Escalation 13
  1.2709,                                 !- Year Escalation 14
  1.2826,                                 !- Year Escalation 15
  1.2985,                                 !- Year Escalation 16
  1.3102,                                 !- Year Escalation 17
  1.3250,                                 !- Year Escalation 18
  1.3261,                                 !- Year Escalation 19
  1.3282,                                 !- Year Escalation 20
  1.3324,                                 !- Year Escalation 21
  1.3356,                                 !- Year Escalation 22
  1.3431,                                 !- Year Escalation 23
  1.3510,                                 !- Year Escalation 24
  1.3568,                                 !- Year Escalation 25
  1.3606,                                 !- Year Escalation 26
  1.3637,                                 !- Year Escalation 27
  1.3674,                                 !- Year Escalation 28
  1.3706,                                 !- Year Escalation 29
  1.3743;                                 !- Year Escalation 30

LifeCycleCost:UsePriceEscalation,
  U.S. Avg  Commercial-Residual Oil,      !- Name
  FuelOilNo2,                             !- Resource
  2011,                                   !- Escalation Start Year
  January,                                !- Escalation Start Month
  0.8469,                                 !- Year Escalation 1
  0.8257,                                 !- Year Escalation 2
  0.8681,                                 !- Year Escalation 3
  0.8988,                                 !- Year Escalation 4
  0.9289,                                 !- Year Escalation 5
  0.9604,                                 !- Year Escalation 6
  0.9897,                                 !- Year Escalation 7
  1.0075,                                 !- Year Escalation 8
  1.0314,                                 !- Year Escalation 9
  1.0554,                                 !- Year Escalation 10
  1.0861,                                 !- Year Escalation 11
  1.1278,                                 !- Year Escalation 12
  1.1497,                                 !- Year Escalation 13
  1.1620,                                 !- Year Escalation 14
  1.1743,                                 !- Year Escalation 15
  1.1852,                                 !- Year Escalation 16
  1.1948,                                 !- Year Escalation 17
  1.2037,                                 !- Year Escalation 18
  1.2071,                                 !- Year Escalation 19
  1.2119,                                 !- Year Escalation 20
  1.2139,                                 !- Year Escalation 21
  1.2194,                                 !- Year Escalation 22
  1.2276,                                 !- Year Escalation 23
  1.2365,                                 !- Year Escalation 24
  1.2420,                                 !- Year Escalation 25
  1.2461,                                 !- Year Escalation 26
  1.2509,                                 !- Year Escalation 27
  1.2550,                                 !- Year Escalation 28
  1.2591,                                 !- Year Escalation 29
  1.2638;                                 !- Year Escalation 30

LifeCycleCost:UsePriceEscalation,
  U.S. Avg  Commercial-Natural gas,       !- Name
  NaturalGas,                             !- Resource
  2011,                                   !- Escalation Start Year
  January,                                !- Escalation Start Month
  0.9823,                                 !- Year Escalation 1
  0.9557,                                 !- Year Escalation 2
  0.9279,                                 !- Year Escalation 3
  0.9257,                                 !- Year Escalation 4
  0.9346,                                 !- Year Escalation 5
  0.9412,                                 !- Year Escalation 6
  0.9512,                                 !- Year Escalation 7
  0.9645,                                 !- Year Escalation 8
  0.9856,                                 !- Year Escalation 9
  1.0067,                                 !- Year Escalation 10
  1.0222,                                 !- Year Escalation 11
  1.0410,                                 !- Year Escalation 12
  1.0610,                                 !- Year Escalation 13
  1.0787,                                 !- Year Escalation 14
  1.0942,                                 !- Year Escalation 15
  1.1098,                                 !- Year Escalation 16
  1.1220,                                 !- Year Escalation 17
  1.1308,                                 !- Year Escalation 18
  1.1386,                                 !- Year Escalation 19
  1.1486,                                 !- Year Escalation 20
  1.1619,                                 !- Year Escalation 21
  1.1763,                                 !- Year Escalation 22
  1.1918,                                 !- Year Escalation 23
  1.2118,                                 !- Year Escalation 24
  1.2284,                                 !- Year Escalation 25
  1.2439,                                 !- Year Escalation 26
  1.2605,                                 !- Year Escalation 27
  1.2772,                                 !- Year Escalation 28
  1.2938,                                 !- Year Escalation 29
  1.3115;                                 !- Year Escalation 30

LifeCycleCost:UsePriceEscalation,
  U.S. Avg  Commercial-Coal,              !- Name
  Coal,                                   !- Resource
  2011,                                   !- Escalation Start Year
  January,                                !- Escalation Start Month
  0.9970,                                 !- Year Escalation 1
  1.0089,                                 !- Year Escalation 2
  1.0089,                                 !- Year Escalation 3
  0.9941,                                 !- Year Escalation 4
  0.9941,                                 !- Year Escalation 5
  1.0000,                                 !- Year Escalation 6
  1.0030,                                 !- Year Escalation 7
  1.0059,                                 !- Year Escalation 8
  1.0089,                                 !- Year Escalation 9
  1.0119,                                 !- Year Escalation 10
  1.0148,                                 !- Year Escalation 11
  1.0178,                                 !- Year Escalation 12
  1.0208,                                 !- Year Escalation 13
  1.0267,                                 !- Year Escalation 14
  1.0297,                                 !- Year Escalation 15
  1.0356,                                 !- Year Escalation 16
  1.0415,                                 !- Year Escalation 17
  1.0534,                                 !- Year Escalation 18
  1.0564,                                 !- Year Escalation 19
  1.0593,                                 !- Year Escalation 20
  1.0653,                                 !- Year Escalation 21
  1.0712,                                 !- Year Escalation 22
  1.0742,                                 !- Year Escalation 23
  1.0801,                                 !- Year Escalation 24
  1.0831,                                 !- Year Escalation 25
  1.0831,                                 !- Year Escalation 26
  1.0861,                                 !- Year Escalation 27
  1.0890,                                 !- Year Escalation 28
  1.0920,                                 !- Year Escalation 29
  1.0950;                                 !- Year Escalation 30

Building,
  bld_2,                                  !- Name
  ,                                       !- North Axis {deg}
  City,                                   !- Terrain
  ,                                       !- Loads Convergence Tolerance Value {W}
  ,                                       !- Temperature Convergence Tolerance Value {deltaC}
  ,                                       !- Solar Distribution
  ,                                       !- Maximum Number of Warmup Days
  ;                                       !- Minimum Number of Warmup Days

Shading:Building:Detailed,
  Shading Surface 35,                     !- Name
  ,                                       !- Transmittance Schedule Name
  ,                                       !- Number of Vertices
  84.0707523296192, 5.10924461564402, 12, !- X,Y,Z Vertex 1 {m}
  84.0707523296192, 5.10924461564402, 0,  !- X,Y,Z Vertex 2 {m}
  76.1995816180637, 5.55339768056576, 0,  !- X,Y,Z Vertex 3 {m}
  76.1995816180637, 5.55339768056576, 12; !- X,Y,Z Vertex 4 {m}

Shading:Building:Detailed,
  Shading Surface 36,                     !- Name
  ,                                       !- Transmittance Schedule Name
  ,                                       !- Number of Vertices
  76.1995816180637, 5.55339768056576, 12, !- X,Y,Z Vertex 1 {m}
  76.1995816180637, 5.55339768056576, 0,  !- X,Y,Z Vertex 2 {m}
  74.106556842805, -30.7632312927867, 0,  !- X,Y,Z Vertex 3 {m}
  74.106556842805, -30.7632312927867, 12; !- X,Y,Z Vertex 4 {m}

Shading:Building:Detailed,
  Shading Surface 37,                     !- Name
  ,                                       !- Transmittance Schedule Name
  ,                                       !- Number of Vertices
  84.4056336509805, 10.4401268087896, 12, !- X,Y,Z Vertex 1 {m}
  84.0707523296192, 5.10924461564402, 12, !- X,Y,Z Vertex 2 {m}
  76.1995816180637, 5.55339768056576, 12, !- X,Y,Z Vertex 3 {m}
  74.106556842805, -30.7632312927867, 12, !- X,Y,Z Vertex 4 {m}
  143.272755368694, -34.7603553351316, 12, !- X,Y,Z Vertex 5 {m}
  145.281744212636, -0.664907617269836, 12, !- X,Y,Z Vertex 6 {m}
  136.321995106588, -0.10978139116674, 12, !- X,Y,Z Vertex 7 {m}
  136.740532354648, 7.44230403060313, 12; !- X,Y,Z Vertex 8 {m}

Shading:Building:Detailed,
  Shading Surface 38,                     !- Name
  ,                                       !- Transmittance Schedule Name
  ,                                       !- Number of Vertices
  136.740532354648, 7.44230403060313, 12, !- X,Y,Z Vertex 1 {m}
  136.740532354648, 7.44230403060313, 0,  !- X,Y,Z Vertex 2 {m}
  84.4056336509805, 10.4401268087896, 0,  !- X,Y,Z Vertex 3 {m}
  84.4056336509805, 10.4401268087896, 12; !- X,Y,Z Vertex 4 {m}

Shading:Building:Detailed,
  Shading Surface 39,                     !- Name
  ,                                       !- Transmittance Schedule Name
  ,                                       !- Number of Vertices
  84.4056336509805, 10.4401268087896, 12, !- X,Y,Z Vertex 1 {m}
  84.4056336509805, 10.4401268087896, 0,  !- X,Y,Z Vertex 2 {m}
  84.0707523296192, 5.10924461564402, 0,  !- X,Y,Z Vertex 3 {m}
  84.0707523296192, 5.10924461564402, 12; !- X,Y,Z Vertex 4 {m}

Shading:Building:Detailed,
  Shading Surface 40,                     !- Name
  ,                                       !- Transmittance Schedule Name
  ,                                       !- Number of Vertices
  136.740532354648, 7.44230403060313, 0,  !- X,Y,Z Vertex 1 {m}
  136.321995106588, -0.10978139116674, 0, !- X,Y,Z Vertex 2 {m}
  145.281744212636, -0.664907617269836, 0, !- X,Y,Z Vertex 3 {m}
  143.272755368694, -34.7603553351316, 0, !- X,Y,Z Vertex 4 {m}
  74.106556842805, -30.7632312927867, 0,  !- X,Y,Z Vertex 5 {m}
  76.1995816180637, 5.55339768056576, 0,  !- X,Y,Z Vertex 6 {m}
  84.0707523296192, 5.10924461564402, 0,  !- X,Y,Z Vertex 7 {m}
  84.4056336509805, 10.4401268087896, 0;  !- X,Y,Z Vertex 8 {m}

Shading:Building:Detailed,
  Shading Surface 41,                     !- Name
  ,                                       !- Transmittance Schedule Name
  ,                                       !- Number of Vertices
  136.321995106588, -0.10978139116674, 12, !- X,Y,Z Vertex 1 {m}
  136.321995106588, -0.10978139116674, 0, !- X,Y,Z Vertex 2 {m}
  136.740532354648, 7.44230403060313, 0,  !- X,Y,Z Vertex 3 {m}
  136.740532354648, 7.44230403060313, 12; !- X,Y,Z Vertex 4 {m}

Shading:Building:Detailed,
  Shading Surface 42,                     !- Name
  ,                                       !- Transmittance Schedule Name
  ,                                       !- Number of Vertices
  145.281744212636, -0.664907617269836, 12, !- X,Y,Z Vertex 1 {m}
  145.281744212636, -0.664907617269836, 0, !- X,Y,Z Vertex 2 {m}
  136.321995106588, -0.10978139116674, 0, !- X,Y,Z Vertex 3 {m}
  136.321995106588, -0.10978139116674, 12; !- X,Y,Z Vertex 4 {m}

Shading:Building:Detailed,
  Shading Surface 43,                     !- Name
  ,                                       !- Transmittance Schedule Name
  ,                                       !- Number of Vertices
  143.272755368694, -34.7603553351316, 12, !- X,Y,Z Vertex 1 {m}
  143.272755368694, -34.7603553351316, 0, !- X,Y,Z Vertex 2 {m}
  145.281744212636, -0.664907617269836, 0, !- X,Y,Z Vertex 3 {m}
  145.281744212636, -0.664907617269836, 12; !- X,Y,Z Vertex 4 {m}

Shading:Building:Detailed,
  Shading Surface 44,                     !- Name
  ,                                       !- Transmittance Schedule Name
  ,                                       !- Number of Vertices
  74.106556842805, -30.7632312927867, 12, !- X,Y,Z Vertex 1 {m}
  74.106556842805, -30.7632312927867, 0,  !- X,Y,Z Vertex 2 {m}
  143.272755368694, -34.7603553351316, 0, !- X,Y,Z Vertex 3 {m}
  143.272755368694, -34.7603553351316, 12; !- X,Y,Z Vertex 4 {m}

Shading:Building:Detailed,
  Shading Surface 45,                     !- Name
  ,                                       !- Transmittance Schedule Name
  ,                                       !- Number of Vertices
  220.897180890892, -64.5224783467219, 12, !- X,Y,Z Vertex 1 {m}
  220.897180890892, -64.5224783467219, 0, !- X,Y,Z Vertex 2 {m}
  220.478713467991, -71.6303279561195, 0, !- X,Y,Z Vertex 3 {m}
  220.478713467991, -71.6303279561195, 12; !- X,Y,Z Vertex 4 {m}

Shading:Building:Detailed,
  Shading Surface 46,                     !- Name
  ,                                       !- Transmittance Schedule Name
  ,                                       !- Number of Vertices
  257.825905106921, -89.2876309233444, 12, !- X,Y,Z Vertex 1 {m}
  257.825905106921, -89.2876309233444, 0, !- X,Y,Z Vertex 2 {m}
  258.746489032954, -74.6276849103623, 0, !- X,Y,Z Vertex 3 {m}
  258.746489032954, -74.6276849103623, 12; !- X,Y,Z Vertex 4 {m}

Shading:Building:Detailed,
  Shading Surface 47,                     !- Name
  ,                                       !- Transmittance Schedule Name
  ,                                       !- Number of Vertices
  240.15664186779, -65.743526898971, 0,   !- X,Y,Z Vertex 1 {m}
  239.738211530193, -73.4066773577345, 0, !- X,Y,Z Vertex 2 {m}
  258.746489032954, -74.6276849103623, 0, !- X,Y,Z Vertex 3 {m}
  257.825905106921, -89.2876309233444, 0, !- X,Y,Z Vertex 4 {m}
  203.648039581751, -85.9575525904939, 0, !- X,Y,Z Vertex 5 {m}
  204.652450296228, -70.6312513009086, 0, !- X,Y,Z Vertex 6 {m}
  220.478713467991, -71.6303279561195, 0, !- X,Y,Z Vertex 7 {m}
  220.897180890892, -64.5224783467219, 0; !- X,Y,Z Vertex 8 {m}

Shading:Building:Detailed,
  Shading Surface 48,                     !- Name
  ,                                       !- Transmittance Schedule Name
  ,                                       !- Number of Vertices
  203.648039581751, -85.9575525904939, 12, !- X,Y,Z Vertex 1 {m}
  203.648039581751, -85.9575525904939, 0, !- X,Y,Z Vertex 2 {m}
  257.825905106921, -89.2876309233444, 0, !- X,Y,Z Vertex 3 {m}
  257.825905106921, -89.2876309233444, 12; !- X,Y,Z Vertex 4 {m}

Shading:Building:Detailed,
  Shading Surface 49,                     !- Name
  ,                                       !- Transmittance Schedule Name
  ,                                       !- Number of Vertices
  240.15664186779, -65.743526898971, 12,  !- X,Y,Z Vertex 1 {m}
  240.15664186779, -65.743526898971, 0,   !- X,Y,Z Vertex 2 {m}
  220.897180890892, -64.5224783467219, 0, !- X,Y,Z Vertex 3 {m}
  220.897180890892, -64.5224783467219, 12; !- X,Y,Z Vertex 4 {m}

Shading:Building:Detailed,
  Shading Surface 50,                     !- Name
  ,                                       !- Transmittance Schedule Name
  ,                                       !- Number of Vertices
  204.652450296228, -70.6312513009086, 12, !- X,Y,Z Vertex 1 {m}
  204.652450296228, -70.6312513009086, 0, !- X,Y,Z Vertex 2 {m}
  203.648039581751, -85.9575525904939, 0, !- X,Y,Z Vertex 3 {m}
  203.648039581751, -85.9575525904939, 12; !- X,Y,Z Vertex 4 {m}

Shading:Building:Detailed,
  Shading Surface 51,                     !- Name
  ,                                       !- Transmittance Schedule Name
  ,                                       !- Number of Vertices
  239.738211530193, -73.4066773577345, 12, !- X,Y,Z Vertex 1 {m}
  239.738211530193, -73.4066773577345, 0, !- X,Y,Z Vertex 2 {m}
  240.15664186779, -65.743526898971, 0,   !- X,Y,Z Vertex 3 {m}
  240.15664186779, -65.743526898971, 12;  !- X,Y,Z Vertex 4 {m}

Shading:Building:Detailed,
  Shading Surface 52,                     !- Name
  ,                                       !- Transmittance Schedule Name
  ,                                       !- Number of Vertices
  258.746489032954, -74.6276849103623, 12, !- X,Y,Z Vertex 1 {m}
  258.746489032954, -74.6276849103623, 0, !- X,Y,Z Vertex 2 {m}
  239.738211530193, -73.4066773577345, 0, !- X,Y,Z Vertex 3 {m}
  239.738211530193, -73.4066773577345, 12; !- X,Y,Z Vertex 4 {m}

Shading:Building:Detailed,
  Shading Surface 53,                     !- Name
  ,                                       !- Transmittance Schedule Name
  ,                                       !- Number of Vertices
  220.897180890892, -64.5224783467219, 12, !- X,Y,Z Vertex 1 {m}
  220.478713467991, -71.6303279561195, 12, !- X,Y,Z Vertex 2 {m}
  204.652450296228, -70.6312513009086, 12, !- X,Y,Z Vertex 3 {m}
  203.648039581751, -85.9575525904939, 12, !- X,Y,Z Vertex 4 {m}
  257.825905106921, -89.2876309233444, 12, !- X,Y,Z Vertex 5 {m}
  258.746489032954, -74.6276849103623, 12, !- X,Y,Z Vertex 6 {m}
  239.738211530193, -73.4066773577345, 12, !- X,Y,Z Vertex 7 {m}
  240.15664186779, -65.743526898971, 12;  !- X,Y,Z Vertex 8 {m}

Shading:Building:Detailed,
  Shading Surface 54,                     !- Name
  ,                                       !- Transmittance Schedule Name
  ,                                       !- Number of Vertices
  220.478713467991, -71.6303279561195, 12, !- X,Y,Z Vertex 1 {m}
  220.478713467991, -71.6303279561195, 0, !- X,Y,Z Vertex 2 {m}
  204.652450296228, -70.6312513009086, 0, !- X,Y,Z Vertex 3 {m}
  204.652450296228, -70.6312513009086, 12; !- X,Y,Z Vertex 4 {m}

Shading:Building:Detailed,
  Shading Surface 55,                     !- Name
  ,                                       !- Transmittance Schedule Name
  ,                                       !- Number of Vertices
  25.3714577269126, 146.154972925047, 12, !- X,Y,Z Vertex 1 {m}
  23.864310616056, 125.386750234418, 12,  !- X,Y,Z Vertex 2 {m}
  21.436014636075, 124.609322770328, 12,  !- X,Y,Z Vertex 3 {m}
  22.4408374247666, 121.499646227779, 12, !- X,Y,Z Vertex 4 {m}
  17.751857241576, 60.0834647339091, 12,  !- X,Y,Z Vertex 5 {m}
  39.355541583455, 58.4176500104152, 12,  !- X,Y,Z Vertex 6 {m}
  39.5229962696055, 61.3052102389217, 12, !- X,Y,Z Vertex 7 {m}
  57.1073898025717, 60.083667430752, 12,  !- X,Y,Z Vertex 8 {m}
  57.7772005694932, 68.9684706999971, 12, !- X,Y,Z Vertex 9 {m}
  48.8173604696442, 96.8444594390899, 12, !- X,Y,Z Vertex 10 {m}
  42.202311829583, 97.3997179158497, 12,  !- X,Y,Z Vertex 11 {m}
  42.9558634893327, 107.728300591406, 12, !- X,Y,Z Vertex 12 {m}
  45.6353729384065, 107.506196959721, 12, !- X,Y,Z Vertex 13 {m}
  46.2214666023376, 115.16933947812, 12,  !- X,Y,Z Vertex 14 {m}
  52.8364799945858, 117.279524252961, 12, !- X,Y,Z Vertex 15 {m}
  53.1713896208711, 121.16662614198, 12,  !- X,Y,Z Vertex 16 {m}
  57.7767740922917, 122.610441097439, 12, !- X,Y,Z Vertex 17 {m}
  58.0279499670008, 126.053302637209, 12, !- X,Y,Z Vertex 18 {m}
  60.5399759559678, 126.83074302834, 12,  !- X,Y,Z Vertex 19 {m}
  61.3772262208876, 137.936748700338, 12, !- X,Y,Z Vertex 20 {m}
  59.5350256890374, 143.600792760407, 12; !- X,Y,Z Vertex 21 {m}

Shading:Building:Detailed,
  Shading Surface 56,                     !- Name
  ,                                       !- Transmittance Schedule Name
  ,                                       !- Number of Vertices
  59.5350256890374, 143.600792760407, 12, !- X,Y,Z Vertex 1 {m}
  59.5350256890374, 143.600792760407, 0,  !- X,Y,Z Vertex 2 {m}
  25.3714577269126, 146.154972925047, 0,  !- X,Y,Z Vertex 3 {m}
  25.3714577269126, 146.154972925047, 12; !- X,Y,Z Vertex 4 {m}

Shading:Building:Detailed,
  Shading Surface 57,                     !- Name
  ,                                       !- Transmittance Schedule Name
  ,                                       !- Number of Vertices
  23.864310616056, 125.386750234418, 12,  !- X,Y,Z Vertex 1 {m}
  23.864310616056, 125.386750234418, 0,   !- X,Y,Z Vertex 2 {m}
  21.436014636075, 124.609322770328, 0,   !- X,Y,Z Vertex 3 {m}
  21.436014636075, 124.609322770328, 12;  !- X,Y,Z Vertex 4 {m}

Shading:Building:Detailed,
  Shading Surface 58,                     !- Name
  ,                                       !- Transmittance Schedule Name
  ,                                       !- Number of Vertices
  25.3714577269126, 146.154972925047, 12, !- X,Y,Z Vertex 1 {m}
  25.3714577269126, 146.154972925047, 0,  !- X,Y,Z Vertex 2 {m}
  23.864310616056, 125.386750234418, 0,   !- X,Y,Z Vertex 3 {m}
  23.864310616056, 125.386750234418, 12;  !- X,Y,Z Vertex 4 {m}

Shading:Building:Detailed,
  Shading Surface 59,                     !- Name
  ,                                       !- Transmittance Schedule Name
  ,                                       !- Number of Vertices
  59.5350256890374, 143.600792760407, 0,  !- X,Y,Z Vertex 1 {m}
  61.3772262208876, 137.936748700338, 0,  !- X,Y,Z Vertex 2 {m}
  60.5399759559678, 126.83074302834, 0,   !- X,Y,Z Vertex 3 {m}
  58.0279499670008, 126.053302637209, 0,  !- X,Y,Z Vertex 4 {m}
  57.7767740922917, 122.610441097439, 0,  !- X,Y,Z Vertex 5 {m}
  53.1713896208711, 121.16662614198, 0,   !- X,Y,Z Vertex 6 {m}
  52.8364799945858, 117.279524252961, 0,  !- X,Y,Z Vertex 7 {m}
  46.2214666023376, 115.16933947812, 0,   !- X,Y,Z Vertex 8 {m}
  45.6353729384065, 107.506196959721, 0,  !- X,Y,Z Vertex 9 {m}
  42.9558634893327, 107.728300591406, 0,  !- X,Y,Z Vertex 10 {m}
  42.202311829583, 97.3997179158497, 0,   !- X,Y,Z Vertex 11 {m}
  48.8173604696442, 96.8444594390899, 0,  !- X,Y,Z Vertex 12 {m}
  57.7772005694932, 68.9684706999971, 0,  !- X,Y,Z Vertex 13 {m}
  57.1073898025717, 60.083667430752, 0,   !- X,Y,Z Vertex 14 {m}
  39.5229962696055, 61.3052102389217, 0,  !- X,Y,Z Vertex 15 {m}
  39.355541583455, 58.4176500104152, 0,   !- X,Y,Z Vertex 16 {m}
  17.751857241576, 60.0834647339091, 0,   !- X,Y,Z Vertex 17 {m}
  22.4408374247666, 121.499646227779, 0,  !- X,Y,Z Vertex 18 {m}
  21.436014636075, 124.609322770328, 0,   !- X,Y,Z Vertex 19 {m}
  23.864310616056, 125.386750234418, 0,   !- X,Y,Z Vertex 20 {m}
  25.3714577269126, 146.154972925047, 0;  !- X,Y,Z Vertex 21 {m}

Shading:Building:Detailed,
  Shading Surface 60,                     !- Name
  ,                                       !- Transmittance Schedule Name
  ,                                       !- Number of Vertices
  61.3772262208876, 137.936748700338, 12, !- X,Y,Z Vertex 1 {m}
  61.3772262208876, 137.936748700338, 0,  !- X,Y,Z Vertex 2 {m}
  59.5350256890374, 143.600792760407, 0,  !- X,Y,Z Vertex 3 {m}
  59.5350256890374, 143.600792760407, 12; !- X,Y,Z Vertex 4 {m}

Shading:Building:Detailed,
  Shading Surface 61,                     !- Name
  ,                                       !- Transmittance Schedule Name
  ,                                       !- Number of Vertices
  60.5399759559678, 126.83074302834, 12,  !- X,Y,Z Vertex 1 {m}
  60.5399759559678, 126.83074302834, 0,   !- X,Y,Z Vertex 2 {m}
  61.3772262208876, 137.936748700338, 0,  !- X,Y,Z Vertex 3 {m}
  61.3772262208876, 137.936748700338, 12; !- X,Y,Z Vertex 4 {m}

Shading:Building:Detailed,
  Shading Surface 62,                     !- Name
  ,                                       !- Transmittance Schedule Name
  ,                                       !- Number of Vertices
  57.7767740922917, 122.610441097439, 12, !- X,Y,Z Vertex 1 {m}
  57.7767740922917, 122.610441097439, 0,  !- X,Y,Z Vertex 2 {m}
  58.0279499670008, 126.053302637209, 0,  !- X,Y,Z Vertex 3 {m}
  58.0279499670008, 126.053302637209, 12; !- X,Y,Z Vertex 4 {m}

Shading:Building:Detailed,
  Shading Surface 63,                     !- Name
  ,                                       !- Transmittance Schedule Name
  ,                                       !- Number of Vertices
  46.2214666023376, 115.16933947812, 12,  !- X,Y,Z Vertex 1 {m}
  46.2214666023376, 115.16933947812, 0,   !- X,Y,Z Vertex 2 {m}
  52.8364799945858, 117.279524252961, 0,  !- X,Y,Z Vertex 3 {m}
  52.8364799945858, 117.279524252961, 12; !- X,Y,Z Vertex 4 {m}

Shading:Building:Detailed,
  Shading Surface 64,                     !- Name
  ,                                       !- Transmittance Schedule Name
  ,                                       !- Number of Vertices
  52.8364799945858, 117.279524252961, 12, !- X,Y,Z Vertex 1 {m}
  52.8364799945858, 117.279524252961, 0,  !- X,Y,Z Vertex 2 {m}
  53.1713896208711, 121.16662614198, 0,   !- X,Y,Z Vertex 3 {m}