    ConvergenceLimits,
      0,                       !- Minimum System Timestep {minutes}
      25;                      !- Maximum HVAC Iterations
    
Version,
  22.2;                                   !- Version Identifier

Timestep,
  1;                                      !- Number of Timesteps per Hour

LifeCycleCost:Parameters,
  Life Cycle Cost Parameters,             !- Name
  EndOfYear,                              !- Discounting Convention
  ConstantDollar,                         !- Inflation Approach
  0.03,                                   !- Real Discount Rate
  ,                                       !- Nominal Discount Rate
  ,                                       !- Inflation
  ,                                       !- Base Date Month
  2011,                                   !- Base Date Year
  ,                                       !- Service Date Month
  2011,                                   !- Service Date Year
  25,                                     !- Length of Study Period in Years
  ,                                       !- Tax rate
  None;                                   !- Depreciation Method

LifeCycleCost:UsePriceEscalation,
  U.S. Avg  Commercial-Electricity,       !- Name
  Electricity,                            !- Resource
  2011,                                   !- Escalation Start Year
  January,                                !- Escalation Start Month
  0.9838,                                 !- Year Escalation 1
  0.9730,                                 !- Year Escalation 2
  0.9632,                                 !- Year Escalation 3
  0.9611,                                 !- Year Escalation 4
  0.9571,                                 !- Year Escalation 5
  0.9553,                                 !- Year Escalation 6
  0.9539,                                 !- Year Escalation 7
  0.9521,                                 !- Year Escalation 8
  0.9546,                                 !- Year Escalation 9
  0.9550,                                 !- Year Escalation 10
  0.9553,                                 !- Year Escalation 11
  0.9564,                                 !- Year Escalation 12
  0.9575,                                 !- Year Escalation 13
  0.9596,                                 !- Year Escalation 14
  0.9618,                                 !- Year Escalation 15
  0.9614,                                 !- Year Escalation 16
  0.9618,                                 !- Year Escalation 17
  0.9618,                                 !- Year Escalation 18
  0.9593,                                 !- Year Escalation 19
  0.9589,                                 !- Year Escalation 20
  0.9607,                                 !- Year Escalation 21
  0.9625,                                 !- Year Escalation 22
  0.9650,                                 !- Year Escalation 23
  0.9708,                                 !- Year Escalation 24
  0.9751,                                 !- Year Escalation 25
  0.9762,                                 !- Year Escalation 26
  0.9766,                                 !- Year Escalation 27
  0.9766,                                 !- Year Escalation 28
  0.9769,                                 !- Year Escalation 29
  0.9773;                                 !- Year Escalation 30

LifeCycleCost:UsePriceEscalation,
  U.S. Avg  Commercial-Distillate Oil,    !- Name
  FuelOilNo1,                             !- Resource
  2011,                                   !- Escalation Start Year
  January,                                !- Escalation Start Month
  0.9714,                                 !- Year Escalation 1
  0.9730,                                 !- Year Escalation 2
  0.9942,                                 !- Year Escalation 3
  1.0164,                                 !- Year Escalation 4
  1.0541,                                 !- Year Escalation 5
  1.0928,                                 !- Year Escalation 6
  1.1267,                                 !- Year Escalation 7
  1.1580,                                 !- Year Escalation 8
  1.1792,                                 !- Year Escalation 9
  1.1967,                                 !- Year Escalation 10
  1.2200,                                 !- Year Escalation 11
  1.2333,                                 !- Year Escalation 12
  1.2566,                                 !- Year Escalation 13
  1.2709,                                 !- Year Escalation 14
  1.2826,                                 !- Year Escalation 15
  1.2985,                                 !- Year Escalation 16
  1.3102,                                 !- Year Escalation 17
  1.3250,                                 !- Year Escalation 18
  1.3261,                                 !- Year Escalation 19
  1.3282,                                 !- Year Escalation 20
  1.3324,                                 !- Year Escalation 21
  1.3356,                                 !- Year Escalation 22
  1.3431,                                 !- Year Escalation 23
  1.3510,                                 !- Year Escalation 24
  1.3568,                                 !- Year Escalation 25
  1.3606,                                 !- Year Escalation 26
  1.3637,                                 !- Year Escalation 27
  1.3674,                                 !- Year Escalation 28
  1.3706,                                 !- Year Escalation 29
  1.3743;                                 !- Year Escalation 30

LifeCycleCost:UsePriceEscalation,
  U.S. Avg  Commercial-Residual Oil,      !- Name
  FuelOilNo2,                             !- Resource
  2011,                                   !- Escalation Start Year
  January,                                !- Escalation Start Month
  0.8469,                                 !- Year Escalation 1
  0.8257,                                 !- Year Escalation 2
  0.8681,                                 !- Year Escalation 3
  0.8988,                                 !- Year Escalation 4
  0.9289,                                 !- Year Escalation 5
  0.9604,                                 !- Year Escalation 6
  0.9897,                                 !- Year Escalation 7
  1.0075,                                 !- Year Escalation 8
  1.0314,                                 !- Year Escalation 9
  1.0554,                                 !- Year Escalation 10
  1.0861,                                 !- Year Escalation 11
  1.1278,                                 !- Year Escalation 12
  1.1497,                                 !- Year Escalation 13
  1.1620,                                 !- Year Escalation 14
  1.1743,                                 !- Year Escalation 15
  1.1852,                                 !- Year Escalation 16
  1.1948,                                 !- Year Escalation 17
  1.2037,                                 !- Year Escalation 18
  1.2071,                                 !- Year Escalation 19
  1.2119,                                 !- Year Escalation 20
  1.2139,                                 !- Year Escalation 21
  1.2194,                                 !- Year Escalation 22
  1.2276,                                 !- Year Escalation 23
  1.2365,                                 !- Year Escalation 24
  1.2420,                                 !- Year Escalation 25
  1.2461,                                 !- Year Escalation 26
  1.2509,                                 !- Year Escalation 27
  1.2550,                                 !- Year Escalation 28
  1.2591,                                 !- Year Escalation 29
  1.2638;                                 !- Year Escalation 30

LifeCycleCost:UsePriceEscalation,
  U.S. Avg  Commercial-Natural gas,       !- Name
  NaturalGas,                             !- Resource
  2011,                                   !- Escalation Start Year
  January,                                !- Escalation Start Month
  0.9823,                                 !- Year Escalation 1
  0.9557,                                 !- Year Escalation 2
  0.9279,                                 !- Year Escalation 3
  0.9257,                                 !- Year Escalation 4
  0.9346,                                 !- Year Escalation 5
  0.9412,                                 !- Year Escalation 6
  0.9512,                                 !- Year Escalation 7
  0.9645,                                 !- Year Escalation 8
  0.9856,                                 !- Year Escalation 9
  1.0067,                                 !- Year Escalation 10
  1.0222,                                 !- Year Escalation 11
  1.0410,                                 !- Year Escalation 12
  1.0610,                                 !- Year Escalation 13
  1.0787,                                 !- Year Escalation 14
  1.0942,                                 !- Year Escalation 15
  1.1098,                                 !- Year Escalation 16
  1.1220,                                 !- Year Escalation 17
  1.1308,                                 !- Year Escalation 18
  1.1386,                                 !- Year Escalation 19
  1.1486,                                 !- Year Escalation 20
  1.1619,                                 !- Year Escalation 21
  1.1763,                                 !- Year Escalation 22
  1.1918,                                 !- Year Escalation 23
  1.2118,                                 !- Year Escalation 24
  1.2284,                                 !- Year Escalation 25
  1.2439,                                 !- Year Escalation 26
  1.2605,                                 !- Year Escalation 27
  1.2772,                                 !- Year Escalation 28
  1.2938,                                 !- Year Escalation 29
  1.3115;                                 !- Year Escalation 30

LifeCycleCost:UsePriceEscalation,
  U.S. Avg  Commercial-Coal,              !- Name
  Coal,                                   !- Resource
  2011,                                   !- Escalation Start Year
  January,                                !- Escalation Start Month
  0.9970,                                 !- Year Escalation 1
  1.0089,                                 !- Year Escalation 2
  1.0089,                                 !- Year Escalation 3
  0.9941,                                 !- Year Escalation 4
  0.9941,                                 !- Year Escalation 5
  1.0000,                                 !- Year Escalation 6
  1.0030,                                 !- Year Escalation 7
  1.0059,                                 !- Year Escalation 8
  1.0089,                                 !- Year Escalation 9
  1.0119,                                 !- Year Escalation 10
  1.0148,                                 !- Year Escalation 11
  1.0178,                                 !- Year Escalation 12
  1.0208,                                 !- Year Escalation 13
  1.0267,                                 !- Year Escalation 14
  1.0297,                                 !- Year Escalation 15
  1.0356,                                 !- Year Escalation 16
  1.0415,                                 !- Year Escalation 17
  1.0534,                                 !- Year Escalation 18
  1.0564,                                 !- Year Escalation 19
  1.0593,                                 !- Year Escalation 20
  1.0653,                                 !- Year Escalation 21
  1.0712,                                 !- Year Escalation 22
  1.0742,                                 !- Year Escalation 23
  1.0801,                                 !- Year Escalation 24
  1.0831,                                 !- Year Escalation 25
  1.0831,                                 !- Year Escalation 26
  1.0861,                                 !- Year Escalation 27
  1.0890,                                 !- Year Escalation 28
  1.0920,                                 !- Year Escalation 29
  1.0950;                                 !- Year Escalation 30

Building,
  bld_6,                                  !- Name
  ,                                       !- North Axis {deg}
  City,                                   !- Terrain
  ,                                       !- Loads Convergence Tolerance Value {W}
  ,                                       !- Temperature Convergence Tolerance Value {deltaC}
  ,                                       !- Solar Distribution
  ,                                       !- Maximum Number of Warmup Days
  ;                                       !- Minimum Number of Warmup Days

Shading:Building:Detailed,
  Shading Surface 32,                     !- Name
  ,                                       !- Transmittance Schedule Name
  ,                                       !- Number of Vertices
  88.5087502115982, 56.418998346229, 12,  !- X,Y,Z Vertex 1 {m}
  88.5087502115982, 56.418998346229, 0,   !- X,Y,Z Vertex 2 {m}
  80.637579228881, 56.8631466052402, 0,   !- X,Y,Z Vertex 3 {m}
  80.637579228881, 56.8631466052402, 12;  !- X,Y,Z Vertex 4 {m}

Shading:Building:Detailed,
  Shading Surface 33,                     !- Name
  ,                                       !- Transmittance Schedule Name
  ,                                       !- Number of Vertices
  147.71077759725, 16.5494345404109, 12,  !- X,Y,Z Vertex 1 {m}
  147.71077759725, 16.5494345404109, 0,   !- X,Y,Z Vertex 2 {m}
  149.719745619962, 50.6448834843868, 0,  !- X,Y,Z Vertex 3 {m}
  149.719745619962, 50.6448834843868, 12; !- X,Y,Z Vertex 4 {m}

Shading:Building:Detailed,
  Shading Surface 34,                     !- Name
  ,                                       !- Transmittance Schedule Name
  ,                                       !- Number of Vertices
  141.178528811227, 58.7520899176169, 12, !- X,Y,Z Vertex 1 {m}
  141.178528811227, 58.7520899176169, 0,  !- X,Y,Z Vertex 2 {m}
  88.8436282775111, 61.7498807436143, 0,  !- X,Y,Z Vertex 3 {m}
  88.8436282775111, 61.7498807436143, 12; !- X,Y,Z Vertex 4 {m}

Shading:Building:Detailed,
  Shading Surface 35,                     !- Name
  ,                                       !- Transmittance Schedule Name
  ,                                       !- Number of Vertices
  149.719745619962, 50.6448834843868, 12, !- X,Y,Z Vertex 1 {m}
  149.719745619962, 50.6448834843868, 0,  !- X,Y,Z Vertex 2 {m}
  140.759996175053, 51.2000042406129, 0,  !- X,Y,Z Vertex 3 {m}
  140.759996175053, 51.2000042406129, 12; !- X,Y,Z Vertex 4 {m}

Shading:Building:Detailed,
  Shading Surface 36,                     !- Name
  ,                                       !- Transmittance Schedule Name
  ,                                       !- Number of Vertices
  88.8436282775111, 61.7498807436143, 12, !- X,Y,Z Vertex 1 {m}
  88.8436282775111, 61.7498807436143, 0,  !- X,Y,Z Vertex 2 {m}
  88.5087502115982, 56.418998346229, 0,   !- X,Y,Z Vertex 3 {m}
  88.5087502115982, 56.418998346229, 12;  !- X,Y,Z Vertex 4 {m}

Shading:Building:Detailed,
  Shading Surface 37,                     !- Name
  ,                                       !- Transmittance Schedule Name
  ,                                       !- Number of Vertices
  140.759996175053, 51.2000042406129, 12, !- X,Y,Z Vertex 1 {m}
  140.759996175053, 51.2000042406129, 0,  !- X,Y,Z Vertex 2 {m}
  141.178528811227, 58.7520899176169, 0,  !- X,Y,Z Vertex 3 {m}
  141.178528811227, 58.7520899176169, 12; !- X,Y,Z Vertex 4 {m}

Shading:Building:Detailed,
  Shading Surface 38,                     !- Name
  ,                                       !- Transmittance Schedule Name
  ,                                       !- Number of Vertices
  78.5445766312764, 20.5465163545459, 12, !- X,Y,Z Vertex 1 {m}
  78.5445766312764, 20.5465163545459, 0,  !- X,Y,Z Vertex 2 {m}
  147.71077759725, 16.5494345404109, 0,   !- X,Y,Z Vertex 3 {m}
  147.71077759725, 16.5494345404109, 12;  !- X,Y,Z Vertex 4 {m}

Shading:Building:Detailed,
  Shading Surface 39,                     !- Name
  ,                                       !- Transmittance Schedule Name
  ,                                       !- Number of Vertices
  88.8436282775111, 61.7498807436143, 12, !- X,Y,Z Vertex 1 {m}
  88.5087502115982, 56.418998346229, 12,  !- X,Y,Z Vertex 2 {m}
  80.637579228881, 56.8631466052402, 12,  !- X,Y,Z Vertex 3 {m}
  78.5445766312764, 20.5465163545459, 12, !- X,Y,Z Vertex 4 {m}
  147.71077759725, 16.5494345404109, 12,  !- X,Y,Z Vertex 5 {m}
  149.719745619962, 50.6448834843868, 12, !- X,Y,Z Vertex 6 {m}
  140.759996175053, 51.2000042406129, 12, !- X,Y,Z Vertex 7 {m}
  141.178528811227, 58.7520899176169, 12; !- X,Y,Z Vertex 8 {m}

Shading:Building:Detailed,
  Shading Surface 40,                     !- Name
  ,                                       !- Transmittance Schedule Name
  ,                                       !- Number of Vertices
  80.637579228881, 56.8631466052402, 12,  !- X,Y,Z Vertex 1 {m}
  80.637579228881, 56.8631466052402, 0,   !- X,Y,Z Vertex 2 {m}
  78.5445766312764, 20.5465163545459, 0,  !- X,Y,Z Vertex 3 {m}
  78.5445766312764, 20.5465163545459, 12; !- X,Y,Z Vertex 4 {m}

Shading:Building:Detailed,
  Shading Surface 41,                     !- Name
  ,                                       !- Transmittance Schedule Name
  ,                                       !- Number of Vertices
  141.178528811227, 58.7520899176169, 0,  !- X,Y,Z Vertex 1 {m}
  140.759996175053, 51.2000042406129, 0,  !- X,Y,Z Vertex 2 {m}
  149.719745619962, 50.6448834843868, 0,  !- X,Y,Z Vertex 3 {m}
  147.71077759725, 16.5494345404109, 0,   !- X,Y,Z Vertex 4 {m}
  78.5445766312764, 20.5465163545459, 0,  !- X,Y,Z Vertex 5 {m}
  80.637579228881, 56.8631466052402, 0,   !- X,Y,Z Vertex 6 {m}
  88.5087502115982, 56.418998346229, 0,   !- X,Y,Z Vertex 7 {m}
  88.8436282775111, 61.7498807436143, 0;  !- X,Y,Z Vertex 8 {m}

Shading:Building:Detailed,
  Shading Surface 42,                     !- Name
  ,                                       !- Transmittance Schedule Name
  ,                                       !- Number of Vertices
  209.090494428878, -19.3214239573184, 12, !- X,Y,Z Vertex 1 {m}
  209.090494428878, -19.3214239573184, 0, !- X,Y,Z Vertex 2 {m}
  208.086093073694, -34.647725861028, 0,  !- X,Y,Z Vertex 3 {m}
  208.086093073694, -34.647725861028, 12; !- X,Y,Z Vertex 4 {m}

Shading:Building:Detailed,
  Shading Surface 43,                     !- Name
  ,                                       !- Transmittance Schedule Name
  ,                                       !- Number of Vertices
  224.916758210373, -20.3204909522063, 12, !- X,Y,Z Vertex 1 {m}
  224.916758210373, -20.3204909522063, 0, !- X,Y,Z Vertex 2 {m}
  209.090494428878, -19.3214239573184, 0, !- X,Y,Z Vertex 3 {m}
  209.090494428878, -19.3214239573184, 12; !- X,Y,Z Vertex 4 {m}

Shading:Building:Detailed,
  Shading Surface 44,                     !- Name
  ,                                       !- Transmittance Schedule Name
  ,                                       !- Number of Vertices
  225.335221292725, -13.212641086999, 12, !- X,Y,Z Vertex 1 {m}
  224.916758210373, -20.3204909522063, 12, !- X,Y,Z Vertex 2 {m}
  209.090494428878, -19.3214239573184, 12, !- X,Y,Z Vertex 3 {m}
  208.086093073694, -34.647725861028, 12, !- X,Y,Z Vertex 4 {m}
  262.263960631047, -37.9777711251129, 12, !- X,Y,Z Vertex 5 {m}
  263.184535604711, -23.3178245492146, 12, !- X,Y,Z Vertex 6 {m}
  244.176257356844, -22.0968285983198, 12, !- X,Y,Z Vertex 7 {m}
  244.594683014788, -14.4336778837351, 12; !- X,Y,Z Vertex 8 {m}

Shading:Building:Detailed,
  Shading Surface 45,                     !- Name
  ,                                       !- Transmittance Schedule Name
  ,                                       !- Number of Vertices
  263.184535604711, -23.3178245492146, 12, !- X,Y,Z Vertex 1 {m}
  263.184535604711, -23.3178245492146, 0, !- X,Y,Z Vertex 2 {m}
  244.176257356844, -22.0968285983198, 0, !- X,Y,Z Vertex 3 {m}
  244.176257356844, -22.0968285983198, 12; !- X,Y,Z Vertex 4 {m}

Shading:Building:Detailed,
  Shading Surface 46,                     !- Name
  ,                                       !- Transmittance Schedule Name
  ,                                       !- Number of Vertices
  244.594683014788, -14.4336778837351, 0, !- X,Y,Z Vertex 1 {m}
  244.176257356844, -22.0968285983198, 0, !- X,Y,Z Vertex 2 {m}
  263.184535604711, -23.3178245492146, 0, !- X,Y,Z Vertex 3 {m}
  262.263960631047, -37.9777711251129, 0, !- X,Y,Z Vertex 4 {m}
  208.086093073694, -34.647725861028, 0,  !- X,Y,Z Vertex 5 {m}
  209.090494428878, -19.3214239573184, 0, !- X,Y,Z Vertex 6 {m}
  224.916758210373, -20.3204909522063, 0, !- X,Y,Z Vertex 7 {m}
  225.335221292725, -13.212641086999, 0;  !- X,Y,Z Vertex 8 {m}

Shading:Building:Detailed,
  Shading Surface 47,                     !- Name
  ,                                       !- Transmittance Schedule Name
  ,                                       !- Number of Vertices
  225.335221292725, -13.212641086999, 12, !- X,Y,Z Vertex 1 {m}
  225.335221292725, -13.212641086999, 0,  !- X,Y,Z Vertex 2 {m}
  224.916758210373, -20.3204909522063, 0, !- X,Y,Z Vertex 3 {m}
  224.916758210373, -20.3204909522063, 12; !- X,Y,Z Vertex 4 {m}

Shading:Building:Detailed,
  Shading Surface 48,                     !- Name
  ,                                       !- Transmittance Schedule Name
  ,                                       !- Number of Vertices
  262.263960631047, -37.9777711251129, 12, !- X,Y,Z Vertex 1 {m}
  262.263960631047, -37.9777711251129, 0, !- X,Y,Z Vertex 2 {m}
  263.184535604711, -23.3178245492146, 0, !- X,Y,Z Vertex 3 {m}
  263.184535604711, -23.3178245492146, 12; !- X,Y,Z Vertex 4 {m}

Shading:Building:Detailed,
  Shading Surface 49,                     !- Name
  ,                                       !- Transmittance Schedule Name
  ,                                       !- Number of Vertices
  208.086093073694, -34.647725861028, 12, !- X,Y,Z Vertex 1 {m}
  208.086093073694, -34.647725861028, 0,  !- X,Y,Z Vertex 2 {m}
  262.263960631047, -37.9777711251129, 0, !- X,Y,Z Vertex 3 {m}
  262.263960631047, -37.9777711251129, 12; !- X,Y,Z Vertex 4 {m}

Shading:Building:Detailed,
  Shading Surface 50,                     !- Name
  ,                                       !- Transmittance Schedule Name
  ,                                       !- Number of Vertices
  244.176257356844, -22.0968285983198, 12, !- X,Y,Z Vertex 1 {m}
  244.176257356844, -22.0968285983198, 0, !- X,Y,Z Vertex 2 {m}
  244.594683014788, -14.4336778837351, 0, !- X,Y,Z Vertex 3 {m}
  244.594683014788, -14.4336778837351, 12; !- X,Y,Z Vertex 4 {m}

Shading:Building:Detailed,
  Shading Surface 51,                     !- Name
  ,                                       !- Transmittance Schedule Name
  ,                                       !- Number of Vertices
  244.594683014788, -14.4336778837351, 12, !- X,Y,Z Vertex 1 {m}
  244.594683014788, -14.4336778837351, 0, !- X,Y,Z Vertex 2 {m}
  225.335221292725, -13.212641086999, 0,  !- X,Y,Z Vertex 3 {m}
  225.335221292725, -13.212641086999, 12; !- X,Y,Z Vertex 4 {m}

Shading:Building:Detailed,
  Shading Surface 52,                     !- Name
  ,                                       !- Transmittance Schedule Name
  ,                                       !- Number of Vertices
  64.9778995048933, 178.140482377374, 12, !- X,Y,Z Vertex 1 {m}
  64.9778995048933, 178.140482377374, 0,  !- X,Y,Z Vertex 2 {m}
  65.8151429874778, 189.246488558365, 0,  !- X,Y,Z Vertex 3 {m}
  65.8151429874778, 189.246488558365, 12; !- X,Y,Z Vertex 4 {m}

Shading:Building:Detailed,
  Shading Surface 53,                     !- Name
  ,                                       !- Transmittance Schedule Name
  ,                                       !- Number of Vertices
  63.9729389966589, 194.910531492402, 0,  !- X,Y,Z Vertex 1 {m}
  65.8151429874778, 189.246488558365, 0,  !- X,Y,Z Vertex 2 {m}
  64.9778995048933, 178.140482377374, 0,  !- X,Y,Z Vertex 3 {m}
  62.4658739907183, 177.363040452562, 0,  !- X,Y,Z Vertex 4 {m}
  62.2147002185298, 173.92017876008, 0,   !- X,Y,Z Vertex 5 {m}
  57.609316628861, 172.476360992842, 0,   !- X,Y,Z Vertex 6 {m}
  57.2744093763874, 168.58925890004, 0,   !- X,Y,Z Vertex 7 {m}
  50.6593972728432, 166.479070086401, 0,  !- X,Y,Z Vertex 8 {m}
  50.073308288704, 158.815927211459, 0,   !- X,Y,Z Vertex 9 {m}
  47.3937987040083, 159.038029206959, 0,  !- X,Y,Z Vertex 10 {m}
  46.6402533517935, 148.709446072952, 0,  !- X,Y,Z Vertex 11 {m}
  53.2553023309079, 148.154191635511, 0,  !- X,Y,Z Vertex 12 {m}
  62.2151594541449, 120.278208371163, 0,  !- X,Y,Z Vertex 13 {m}
  61.5453541130247, 111.39340469395, 0,   !- X,Y,Z Vertex 14 {m}
  43.9609598341837, 112.614936764793, 0,  !- X,Y,Z Vertex 15 {m}
  43.793506911416, 109.727376434349, 0,   !- X,Y,Z Vertex 16 {m}
  22.1898215523298, 111.393177965716, 0,  !- X,Y,Z Vertex 17 {m}
  26.8787642295243, 172.809362313813, 0,  !- X,Y,Z Vertex 18 {m}
  25.8739395417896, 175.919038242189, 0,  !- X,Y,Z Vertex 19 {m}
  28.3022350469968, 176.696467188949, 0,  !- X,Y,Z Vertex 20 {m}
  29.8093694748901, 197.464690795648, 0;  !- X,Y,Z Vertex 21 {m}

Shading:Building:Detailed,
  Shading Surface 54,                     !- Name
  ,                                       !- Transmittance Schedule Name
  ,                                       !- Number of Vertices
  62.2147002185298, 173.92017876008, 12,  !- X,Y,Z Vertex 1 {m}
  62.2147002185298, 173.92017876008, 0,   !- X,Y,Z Vertex 2 {m}
  62.4658739907183, 177.363040452562, 0,  !- X,Y,Z Vertex 3 {m}
  62.4658739907183, 177.363040452562, 12; !- X,Y,Z Vertex 4 {m}

Shading:Building:Detailed,
  Shading Surface 55,                     !- Name
  ,                                       !- Transmittance Schedule Name
  ,                                       !- Number of Vertices
  62.4658739907183, 177.363040452562, 12, !- X,Y,Z Vertex 1 {m}
  62.4658739907183, 177.363040452562, 0,  !- X,Y,Z Vertex 2 {m}
  64.9778995048933, 178.140482377374, 0,  !- X,Y,Z Vertex 3 {m}
  64.9778995048933, 178.140482377374, 12; !- X,Y,Z Vertex 4 {m}

Shading:Building:Detailed,
  Shading Surface 56,                     !- Name
  ,                                       !- Transmittance Schedule Name
  ,                                       !- Number of Vertices
  57.609316628861, 172.476360992842, 12,  !- X,Y,Z Vertex 1 {m}
  57.609316628861, 172.476360992842, 0,   !- X,Y,Z Vertex 2 {m}
  62.2147002185298, 173.92017876008, 0,   !- X,Y,Z Vertex 3 {m}
  62.2147002185298, 173.92017876008, 12;  !- X,Y,Z Vertex 4 {m}

Shading:Building:Detailed,
  Shading Surface 57,                     !- Name
  ,                                       !- Transmittance Schedule Name
  ,                                       !- Number of Vertices
  65.8151429874778, 189.246488558365, 12, !- X,Y,Z Vertex 1 {m}
  65.8151429874778, 189.246488558365, 0,  !- X,Y,Z Vertex 2 {m}
  63.9729389966589, 194.910531492402, 0,  !- X,Y,Z Vertex 3 {m}
  63.9729389966589, 194.910531492402, 12; !- X,Y,Z Vertex 4 {m}

Shading:Building:Detailed,
  Shading Surface 58,                     !- Name
  ,                                       !- Transmittance Schedule Name
  ,                                       !- Number of Vertices
  57.2744093763874, 168.58925890004, 12,  !- X,Y,Z Vertex 1 {m}
  57.2744093763874, 168.58925890004, 0,   !- X,Y,Z Vertex 2 {m}
  57.609316628861, 172.476360992842, 0,   !- X,Y,Z Vertex 3 {m}
  57.609316628861, 172.476360992842, 12;  !- X,Y,Z Vertex 4 {m}

Shading:Building:Detailed,
  Shading Surface 59,                     !- Name
  ,                                       !- Transmittance Schedule Name
  ,                                       !- Number of Vertices
  50.6593972728432, 166.479070086401, 12, !- X,Y,Z Vertex 1 {m}
  50.6593972728432, 166.479070086401, 0,  !- X,Y,Z Vertex 2 {m}
  57.2744093763874, 168.58925890004, 0,   !- X,Y,Z Vertex 3 {m}
  57.2744093763874, 168.58925890004, 12;  !- X,Y,Z Vertex 4 {m}

Shading:Building:Detailed,
  Shading Surface 60,                     !- Name
  ,                                       !- Transmittance Schedule Name
  ,                                       !- Number of Vertices
  50.073308288704, 158.815927211459, 12,  !- X,Y,Z Vertex 1 {m}
  50.073308288704, 158.815927211459, 0,   !- X,Y,Z Vertex 2 {m}
  50.6593972728432, 166.479070086401, 0,  !- X,Y,Z Vertex 3 {m}
  50.6593972728432, 166.479070086401, 12; !- X,Y,Z Vertex 4 {m}

Shading:Building:Detailed,
  Shading Surface 61,                     !- Name
  ,                                       !- Transmittance Schedule Name
  ,                                       !- Number of Vertices
  47.3937987040083, 159.038029206959, 12, !- X,Y,Z Vertex 1 {m}
  47.3937987040083, 159.038029206959, 0,  !- X,Y,Z Vertex 2 {m}
  50.073308288704, 158.815927211459, 0,   !- X,Y,Z Vertex 3 {m}
  50.073308288704, 158.815927211459, 12;  !- X,Y,Z Vertex 4 {m}

Shading:Building:Detailed,
  Shading Surface 62,                     !- Name
  ,                                       !- Transmittance Schedule Name
  ,                                       !- Number of Vertices
  46.6402533517935, 148.709446072952, 12, !- X,Y,Z Vertex 1 {m}
  46.6402533517935, 148.709446072952, 0,  !- X,Y,Z Vertex 2 {m}
  47.3937987040083, 159.038029206959, 0,  !- X,Y,Z Vertex 3 {m}
  47.3937987040083, 159.038029206959, 12; !- X,Y,Z Vertex 4 {m}

Shading:Building:Detailed,
  Shading Surface 63,                     !- Name
  ,                                       !- Transmittance Schedule Name
  ,                                       !- Number of Vertices
  53.2553023309079, 148.154191635511, 12, !- X,Y,Z Vertex 1 {m}
  53.2553023309079, 148.154191635511, 0,  !- X,Y,Z Vertex 2 {m}
  46.6402533517935, 148.709446072952, 0,  !- X,Y,Z Vertex 3 {m}
  46.6402533517935, 148.709446072952, 12; !- X,Y,Z Vertex 4 {m}

Shading:Building:Detailed,
  Shading Surface 64,                     !- Name