
Version,
  22.2;                                   !- Version Identifier

Timestep,
  1;                                      !- Number of Timesteps per Hour

LifeCycleCost:Parameters,
  Life Cycle Cost Parameters,             !- Name
  EndOfYear,                              !- Discounting Convention
  ConstantDollar,                         !- Inflation Approach
  0.03,                                   !- Real Discount Rate
  ,                                       !- Nominal Discount Rate
  ,                                       !- Inflation
  ,                                       !- Base Date Month
  2011,                                   !- Base Date Year
  ,                                       !- Service Date Month
  2011,                                   !- Service Date Year
  25,                                     !- Length of Study Period in Years
  ,                                       !- Tax rate
  None;                                   !- Depreciation Method

LifeCycleCost:UsePriceEscalation,
  U.S. Avg  Commercial-Electricity,       !- Name
  Electricity,                            !- Resource
  2011,                                   !- Escalation Start Year
  January,                                !- Escalation Start Month
  0.9838,                                 !- Year Escalation 1
  0.9730,                                 !- Year Escalation 2
  0.9632,                                 !- Year Escalation 3
  0.9611,                                 !- Year Escalation 4
  0.9571,                                 !- Year Escalation 5
  0.9553,                                 !- Year Escalation 6
  0.9539,                                 !- Year Escalation 7
  0.9521,                                 !- Year Escalation 8
  0.9546,                                 !- Year Escalation 9
  0.9550,                                 !- Year Escalation 10
  0.9553,                                 !- Year Escalation 11
  0.9564,                                 !- Year Escalation 12
  0.9575,                                 !- Year Escalation 13
  0.9596,                                 !- Year Escalation 14
  0.9618,                                 !- Year Escalation 15
  0.9614,                                 !- Year Escalation 16
  0.9618,                                 !- Year Escalation 17
  0.9618,                                 !- Year Escalation 18
  0.9593,                                 !- Year Escalation 19
  0.9589,                                 !- Year Escalation 20
  0.9607,                                 !- Year Escalation 21
  0.9625,                                 !- Year Escalation 22
  0.9650,                                 !- Year Escalation 23
  0.9708,                                 !- Year Escalation 24
  0.9751,                                 !- Year Escalation 25
  0.9762,                                 !- Year Escalation 26
  0.9766,                                 !- Year Escalation 27
  0.9766,                                 !- Year Escalation 28
  0.9769,                                 !- Year Escalation 29
  0.9773;                                 !- Year Escalation 30

LifeCycleCost:UsePriceEscalation,
  U.S. Avg  Commercial-Distillate Oil,    !- Name
  FuelOilNo1,                             !- Resource
  2011,                                   !- Escalation Start Year
  January,                                !- Escalation Start Month
  0.9714,                                 !- Year Escalation 1
  0.9730,                                 !- Year Escalation 2
  0.9942,                                 !- Year Escalation 3
  1.0164,                                 !- Year Escalation 4
  1.0541,                                 !- Year Escalation 5
  1.0928,                                 !- Year Escalation 6
  1.1267,                                 !- Year Escalation 7
  1.1580,                                 !- Year Escalation 8
  1.1792,                                 !- Year Escalation 9
  1.1967,                                 !- Year Escalation 10
  1.2200,                                 !- Year Escalation 11
  1.2333,                                 !- Year Escalation 12
  1.2566,                                 !- Year Escalation 13
  1.2709,                                 !- Year Escalation 14
  1.2826,                                 !- Year Escalation 15
  1.2985,                                 !- Year Escalation 16
  1.3102,                                 !- Year Escalation 17
  1.3250,                                 !- Year Escalation 18
  1.3261,                                 !- Year Escalation 19
  1.3282,                                 !- Year Escalation 20
  1.3324,                                 !- Year Escalation 21
  1.3356,                                 !- Year Escalation 22
  1.3431,                                 !- Year Escalation 23
  1.3510,                                 !- Year Escalation 24
  1.3568,                                 !- Year Escalation 25
  1.3606,                                 !- Year Escalation 26
  1.3637,                                 !- Year Escalation 27
  1.3674,                                 !- Year Escalation 28
  1.3706,                                 !- Year Escalation 29
  1.3743;                                 !- Year Escalation 30

LifeCycleCost:UsePriceEscalation,
  U.S. Avg  Commercial-Residual Oil,      !- Name
  FuelOilNo2,                             !- Resource
  2011,                                   !- Escalation Start Year
  January,                                !- Escalation Start Month
  0.8469,                                 !- Year Escalation 1
  0.8257,                                 !- Year Escalation 2
  0.8681,                                 !- Year Escalation 3
  0.8988,                                 !- Year Escalation 4
  0.9289,                                 !- Year Escalation 5
  0.9604,                                 !- Year Escalation 6
  0.9897,                                 !- Year Escalation 7
  1.0075,                                 !- Year Escalation 8
  1.0314,                                 !- Year Escalation 9
  1.0554,                                 !- Year Escalation 10
  1.0861,                                 !- Year Escalation 11
  1.1278,                                 !- Year Escalation 12
  1.1497,                                 !- Year Escalation 13
  1.1620,                                 !- Year Escalation 14
  1.1743,                                 !- Year Escalation 15
  1.1852,                                 !- Year Escalation 16
  1.1948,                                 !- Year Escalation 17
  1.2037,                                 !- Year Escalation 18
  1.2071,                                 !- Year Escalation 19
  1.2119,                                 !- Year Escalation 20
  1.2139,                                 !- Year Escalation 21
  1.2194,                                 !- Year Escalation 22
  1.2276,                                 !- Year Escalation 23
  1.2365,                                 !- Year Escalation 24
  1.2420,                                 !- Year Escalation 25
  1.2461,                                 !- Year Escalation 26
  1.2509,                                 !- Year Escalation 27
  1.2550,                                 !- Year Escalation 28
  1.2591,                                 !- Year Escalation 29
  1.2638;                                 !- Year Escalation 30

LifeCycleCost:UsePriceEscalation,
  U.S. Avg  Commercial-Natural gas,       !- Name
  NaturalGas,                             !- Resource
  2011,                                   !- Escalation Start Year
  January,                                !- Escalation Start Month
  0.9823,                                 !- Year Escalation 1
  0.9557,                                 !- Year Escalation 2
  0.9279,                                 !- Year Escalation 3
  0.9257,                                 !- Year Escalation 4
  0.9346,                                 !- Year Escalation 5
  0.9412,                                 !- Year Escalation 6
  0.9512,                                 !- Year Escalation 7
  0.9645,                                 !- Year Escalation 8
  0.9856,                                 !- Year Escalation 9
  1.0067,                                 !- Year Escalation 10
  1.0222,                                 !- Year Escalation 11
  1.0410,                                 !- Year Escalation 12
  1.0610,                                 !- Year Escalation 13
  1.0787,                                 !- Year Escalation 14
  1.0942,                                 !- Year Escalation 15
  1.1098,                                 !- Year Escalation 16
  1.1220,                                 !- Year Escalation 17
  1.1308,                                 !- Year Escalation 18
  1.1386,                                 !- Year Escalation 19
  1.1486,                                 !- Year Escalation 20
  1.1619,                                 !- Year Escalation 21
  1.1763,                                 !- Year Escalation 22
  1.1918,                                 !- Year Escalation 23
  1.2118,                                 !- Year Escalation 24
  1.2284,                                 !- Year Escalation 25
  1.2439,                                 !- Year Escalation 26
  1.2605,                                 !- Year Escalation 27
  1.2772,                                 !- Year Escalation 28
  1.2938,                                 !- Year Escalation 29
  1.3115;                                 !- Year Escalation 30

LifeCycleCost:UsePriceEscalation,
  U.S. Avg  Commercial-Coal,              !- Name
  Coal,                                   !- Resource
  2011,                                   !- Escalation Start Year
  January,                                !- Escalation Start Month
  0.9970,                                 !- Year Escalation 1
  1.0089,                                 !- Year Escalation 2
  1.0089,                                 !- Year Escalation 3
  0.9941,                                 !- Year Escalation 4
  0.9941,                                 !- Year Escalation 5
  1.0000,                                 !- Year Escalation 6
  1.0030,                                 !- Year Escalation 7
  1.0059,                                 !- Year Escalation 8
  1.0089,                                 !- Year Escalation 9
  1.0119,                                 !- Year Escalation 10
  1.0148,                                 !- Year Escalation 11
  1.0178,                                 !- Year Escalation 12
  1.0208,                                 !- Year Escalation 13
  1.0267,                                 !- Year Escalation 14
  1.0297,                                 !- Year Escalation 15
  1.0356,                                 !- Year Escalation 16
  1.0415,                                 !- Year Escalation 17
  1.0534,                                 !- Year Escalation 18
  1.0564,                                 !- Year Escalation 19
  1.0593,                                 !- Year Escalation 20
  1.0653,                                 !- Year Escalation 21
  1.0712,                                 !- Year Escalation 22
  1.0742,                                 !- Year Escalation 23
  1.0801,                                 !- Year Escalation 24
  1.0831,                                 !- Year Escalation 25
  1.0831,                                 !- Year Escalation 26
  1.0861,                                 !- Year Escalation 27
  1.0890,                                 !- Year Escalation 28
  1.0920,                                 !- Year Escalation 29
  1.0950;                                 !- Year Escalation 30

Building,
  bld_8,                                  !- Name
  ,                                       !- North Axis {deg}
  City,                                   !- Terrain
  ,                                       !- Loads Convergence Tolerance Value {W}
  ,                                       !- Temperature Convergence Tolerance Value {deltaC}
  ,                                       !- Solar Distribution
  ,                                       !- Maximum Number of Warmup Days
  ;                                       !- Minimum Number of Warmup Days

Shading:Building:Detailed,
  Shading Surface 32,                     !- Name
  ,                                       !- Transmittance Schedule Name
  ,                                       !- Number of Vertices
  143.355659147329, -254.325955955949, 0, !- X,Y,Z Vertex 1 {m}
  142.937128773589, -261.878041752865, 0, !- X,Y,Z Vertex 2 {m}
  151.896878384729, -262.433159814355, 0, !- X,Y,Z Vertex 3 {m}
  149.887920576207, -296.528609330089, 0, !- X,Y,Z Vertex 4 {m}
  80.7217184132317, -292.531548302049, 0, !- X,Y,Z Vertex 5 {m}
  82.8147101312318, -256.214917456116, 0, !- X,Y,Z Vertex 6 {m}
  90.6858812469694, -256.659063351526, 0, !- X,Y,Z Vertex 7 {m}
  91.0207577158697, -251.328180857603, 0; !- X,Y,Z Vertex 8 {m}

Shading:Building:Detailed,
  Shading Surface 33,                     !- Name
  ,                                       !- Transmittance Schedule Name
  ,                                       !- Number of Vertices
  82.8147101312318, -256.214917456116, 12, !- X,Y,Z Vertex 1 {m}
  82.8147101312318, -256.214917456116, 0, !- X,Y,Z Vertex 2 {m}
  80.7217184132317, -292.531548302049, 0, !- X,Y,Z Vertex 3 {m}
  80.7217184132317, -292.531548302049, 12; !- X,Y,Z Vertex 4 {m}

Shading:Building:Detailed,
  Shading Surface 34,                     !- Name
  ,                                       !- Transmittance Schedule Name
  ,                                       !- Number of Vertices
  90.6858812469694, -256.659063351526, 12, !- X,Y,Z Vertex 1 {m}
  90.6858812469694, -256.659063351526, 0, !- X,Y,Z Vertex 2 {m}
  82.8147101312318, -256.214917456116, 0, !- X,Y,Z Vertex 3 {m}
  82.8147101312318, -256.214917456116, 12; !- X,Y,Z Vertex 4 {m}

Shading:Building:Detailed,
  Shading Surface 35,                     !- Name
  ,                                       !- Transmittance Schedule Name
  ,                                       !- Number of Vertices
  80.7217184132317, -292.531548302049, 12, !- X,Y,Z Vertex 1 {m}
  80.7217184132317, -292.531548302049, 0, !- X,Y,Z Vertex 2 {m}
  149.887920576207, -296.528609330089, 0, !- X,Y,Z Vertex 3 {m}
  149.887920576207, -296.528609330089, 12; !- X,Y,Z Vertex 4 {m}

Shading:Building:Detailed,
  Shading Surface 36,                     !- Name
  ,                                       !- Transmittance Schedule Name
  ,                                       !- Number of Vertices
  142.937128773589, -261.878041752865, 12, !- X,Y,Z Vertex 1 {m}
  142.937128773589, -261.878041752865, 0, !- X,Y,Z Vertex 2 {m}
  143.355659147329, -254.325955955949, 0, !- X,Y,Z Vertex 3 {m}
  143.355659147329, -254.325955955949, 12; !- X,Y,Z Vertex 4 {m}

Shading:Building:Detailed,
  Shading Surface 37,                     !- Name
  ,                                       !- Transmittance Schedule Name
  ,                                       !- Number of Vertices
  149.887920576207, -296.528609330089, 12, !- X,Y,Z Vertex 1 {m}
  149.887920576207, -296.528609330089, 0, !- X,Y,Z Vertex 2 {m}
  151.896878384729, -262.433159814355, 0, !- X,Y,Z Vertex 3 {m}
  151.896878384729, -262.433159814355, 12; !- X,Y,Z Vertex 4 {m}

Shading:Building:Detailed,
  Shading Surface 38,                     !- Name
  ,                                       !- Transmittance Schedule Name
  ,                                       !- Number of Vertices
  143.355659147329, -254.325955955949, 12, !- X,Y,Z Vertex 1 {m}
  143.355659147329, -254.325955955949, 0, !- X,Y,Z Vertex 2 {m}
  91.0207577158697, -251.328180857603, 0, !- X,Y,Z Vertex 3 {m}
  91.0207577158697, -251.328180857603, 12; !- X,Y,Z Vertex 4 {m}

Shading:Building:Detailed,
  Shading Surface 39,                     !- Name
  ,                                       !- Transmittance Schedule Name
  ,                                       !- Number of Vertices
  91.0207577158697, -251.328180857603, 12, !- X,Y,Z Vertex 1 {m}
  90.6858812469694, -256.659063351526, 12, !- X,Y,Z Vertex 2 {m}
  82.8147101312318, -256.214917456116, 12, !- X,Y,Z Vertex 3 {m}
  80.7217184132317, -292.531548302049, 12, !- X,Y,Z Vertex 4 {m}
  149.887920576207, -296.528609330089, 12, !- X,Y,Z Vertex 5 {m}
  151.896878384729, -262.433159814355, 12, !- X,Y,Z Vertex 6 {m}
  142.937128773589, -261.878041752865, 12, !- X,Y,Z Vertex 7 {m}
  143.355659147329, -254.325955955949, 12; !- X,Y,Z Vertex 8 {m}

Shading:Building:Detailed,
  Shading Surface 40,                     !- Name
  ,                                       !- Transmittance Schedule Name
  ,                                       !- Number of Vertices
  91.0207577158697, -251.328180857603, 12, !- X,Y,Z Vertex 1 {m}
  91.0207577158697, -251.328180857603, 0, !- X,Y,Z Vertex 2 {m}
  90.6858812469694, -256.659063351526, 0, !- X,Y,Z Vertex 3 {m}
  90.6858812469694, -256.659063351526, 12; !- X,Y,Z Vertex 4 {m}

Shading:Building:Detailed,
  Shading Surface 41,                     !- Name
  ,                                       !- Transmittance Schedule Name
  ,                                       !- Number of Vertices
  151.896878384729, -262.433159814355, 12, !- X,Y,Z Vertex 1 {m}
  151.896878384729, -262.433159814355, 0, !- X,Y,Z Vertex 2 {m}
  142.937128773589, -261.878041752865, 0, !- X,Y,Z Vertex 3 {m}
  142.937128773589, -261.878041752865, 12; !- X,Y,Z Vertex 4 {m}

Shading:Building:Detailed,
  Shading Surface 42,                     !- Name
  ,                                       !- Transmittance Schedule Name
  ,                                       !- Number of Vertices
  66.1500285427302, -118.167537603533, 12, !- X,Y,Z Vertex 1 {m}
  66.1500285427302, -118.167537603533, 0, !- X,Y,Z Vertex 2 {m}
  31.9864582558637, -115.613388546935, 0, !- X,Y,Z Vertex 3 {m}
  31.9864582558637, -115.613388546935, 12; !- X,Y,Z Vertex 4 {m}

Shading:Building:Detailed,
  Shading Surface 43,                     !- Name
  ,                                       !- Transmittance Schedule Name
  ,                                       !- Number of Vertices
  31.9864582558637, -115.613388546935, 12, !- X,Y,Z Vertex 1 {m}
  30.479330049802, -136.381612610399, 12, !- X,Y,Z Vertex 2 {m}
  28.0510347775034, -137.159042285279, 12, !- X,Y,Z Vertex 3 {m}
  29.0558603968439, -140.268717912843, 12, !- X,Y,Z Vertex 4 {m}
  24.3669361188187, -201.684903659732, 12, !- X,Y,Z Vertex 5 {m}
  45.9706219769055, -203.35069871275, 12, !- X,Y,Z Vertex 6 {m}
  46.1380740346174, -200.463138333095, 12, !- X,Y,Z Vertex 7 {m}
  63.7224686793538, -201.68466512825, 12, !- X,Y,Z Vertex 8 {m}
  64.3922713587599, -192.799861252846, 12, !- X,Y,Z Vertex 9 {m}
  55.4324058844297, -164.923880681586, 12, !- X,Y,Z Vertex 10 {m}
  48.8173567389894, -164.368628228534, 12, !- X,Y,Z Vertex 11 {m}
  49.5708989969416, -154.040044868712, 12, !- X,Y,Z Vertex 12 {m}
  52.2504086481679, -154.262146060454, 12, !- X,Y,Z Vertex 13 {m}
  52.8364953365599, -146.599003009335, 12, !- X,Y,Z Vertex 14 {m}
  59.4515068079077, -144.48881221097, 12, !- X,Y,Z Vertex 15 {m}
  59.7864128958698, -140.601710017265, 12, !- X,Y,Z Vertex 16 {m}
  64.3917960529796, -139.157890867985, 12, !- X,Y,Z Vertex 17 {m}
  64.6429687937428, -135.715029099625, 12, !- X,Y,Z Vertex 18 {m}
  67.1549940750002, -134.937586420873, 12, !- X,Y,Z Vertex 19 {m}
  67.9922342304012, -123.831579986298, 12, !- X,Y,Z Vertex 20 {m}
  66.1500285427302, -118.167537603533, 12; !- X,Y,Z Vertex 21 {m}

Shading:Building:Detailed,
  Shading Surface 44,                     !- Name
  ,                                       !- Transmittance Schedule Name
  ,                                       !- Number of Vertices
  45.9706219769055, -203.35069871275, 12, !- X,Y,Z Vertex 1 {m}
  45.9706219769055, -203.35069871275, 0,  !- X,Y,Z Vertex 2 {m}
  46.1380740346174, -200.463138333095, 0, !- X,Y,Z Vertex 3 {m}
  46.1380740346174, -200.463138333095, 12; !- X,Y,Z Vertex 4 {m}

Shading:Building:Detailed,
  Shading Surface 45,                     !- Name
  ,                                       !- Transmittance Schedule Name
  ,                                       !- Number of Vertices
  64.3922713587599, -192.799861252846, 12, !- X,Y,Z Vertex 1 {m}
  64.3922713587599, -192.799861252846, 0, !- X,Y,Z Vertex 2 {m}
  55.4324058844297, -164.923880681586, 0, !- X,Y,Z Vertex 3 {m}
  55.4324058844297, -164.923880681586, 12; !- X,Y,Z Vertex 4 {m}

Shading:Building:Detailed,
  Shading Surface 46,                     !- Name
  ,                                       !- Transmittance Schedule Name
  ,                                       !- Number of Vertices
  28.0510347775034, -137.159042285279, 12, !- X,Y,Z Vertex 1 {m}
  28.0510347775034, -137.159042285279, 0, !- X,Y,Z Vertex 2 {m}
  29.0558603968439, -140.268717912843, 0, !- X,Y,Z Vertex 3 {m}
  29.0558603968439, -140.268717912843, 12; !- X,Y,Z Vertex 4 {m}

Shading:Building:Detailed,
  Shading Surface 47,                     !- Name
  ,                                       !- Transmittance Schedule Name
  ,                                       !- Number of Vertices
  30.479330049802, -136.381612610399, 12, !- X,Y,Z Vertex 1 {m}
  30.479330049802, -136.381612610399, 0,  !- X,Y,Z Vertex 2 {m}
  28.0510347775034, -137.159042285279, 0, !- X,Y,Z Vertex 3 {m}
  28.0510347775034, -137.159042285279, 12; !- X,Y,Z Vertex 4 {m}

Shading:Building:Detailed,
  Shading Surface 48,                     !- Name
  ,                                       !- Transmittance Schedule Name
  ,                                       !- Number of Vertices
  29.0558603968439, -140.268717912843, 12, !- X,Y,Z Vertex 1 {m}
  29.0558603968439, -140.268717912843, 0, !- X,Y,Z Vertex 2 {m}
  24.3669361188187, -201.684903659732, 0, !- X,Y,Z Vertex 3 {m}
  24.3669361188187, -201.684903659732, 12; !- X,Y,Z Vertex 4 {m}

Shading:Building:Detailed,
  Shading Surface 49,                     !- Name
  ,                                       !- Transmittance Schedule Name
  ,                                       !- Number of Vertices
  31.9864582558637, -115.613388546935, 12, !- X,Y,Z Vertex 1 {m}
  31.9864582558637, -115.613388546935, 0, !- X,Y,Z Vertex 2 {m}
  30.479330049802, -136.381612610399, 0,  !- X,Y,Z Vertex 3 {m}
  30.479330049802, -136.381612610399, 12; !- X,Y,Z Vertex 4 {m}

Shading:Building:Detailed,
  Shading Surface 50,                     !- Name
  ,                                       !- Transmittance Schedule Name
  ,                                       !- Number of Vertices
  66.1500285427302, -118.167537603533, 0, !- X,Y,Z Vertex 1 {m}
  67.9922342304012, -123.831579986298, 0, !- X,Y,Z Vertex 2 {m}
  67.1549940750002, -134.937586420873, 0, !- X,Y,Z Vertex 3 {m}
  64.6429687937428, -135.715029099625, 0, !- X,Y,Z Vertex 4 {m}
  64.3917960529796, -139.157890867985, 0, !- X,Y,Z Vertex 5 {m}
  59.7864128958698, -140.601710017265, 0, !- X,Y,Z Vertex 6 {m}
  59.4515068079077, -144.48881221097, 0,  !- X,Y,Z Vertex 7 {m}
  52.8364953365599, -146.599003009335, 0, !- X,Y,Z Vertex 8 {m}
  52.2504086481679, -154.262146060454, 0, !- X,Y,Z Vertex 9 {m}
  49.5708989969416, -154.040044868712, 0, !- X,Y,Z Vertex 10 {m}
  48.8173567389894, -164.368628228534, 0, !- X,Y,Z Vertex 11 {m}
  55.4324058844297, -164.923880681586, 0, !- X,Y,Z Vertex 12 {m}
  64.3922713587599, -192.799861252846, 0, !- X,Y,Z Vertex 13 {m}
  63.7224686793538, -201.68466512825, 0,  !- X,Y,Z Vertex 14 {m}
  46.1380740346174, -200.463138333095, 0, !- X,Y,Z Vertex 15 {m}
  45.9706219769055, -203.35069871275, 0,  !- X,Y,Z Vertex 16 {m}
  24.3669361188187, -201.684903659732, 0, !- X,Y,Z Vertex 17 {m}
  29.0558603968439, -140.268717912843, 0, !- X,Y,Z Vertex 18 {m}
  28.0510347775034, -137.159042285279, 0, !- X,Y,Z Vertex 19 {m}
  30.479330049802, -136.381612610399, 0,  !- X,Y,Z Vertex 20 {m}
  31.9864582558637, -115.613388546935, 0; !- X,Y,Z Vertex 21 {m}

Shading:Building:Detailed,
  Shading Surface 51,                     !- Name
  ,                                       !- Transmittance Schedule Name
  ,                                       !- Number of Vertices
  46.1380740346174, -200.463138333095, 12, !- X,Y,Z Vertex 1 {m}
  46.1380740346174, -200.463138333095, 0, !- X,Y,Z Vertex 2 {m}
  63.7224686793538, -201.68466512825, 0,  !- X,Y,Z Vertex 3 {m}
  63.7224686793538, -201.68466512825, 12; !- X,Y,Z Vertex 4 {m}

Shading:Building:Detailed,
  Shading Surface 52,                     !- Name
  ,                                       !- Transmittance Schedule Name
  ,                                       !- Number of Vertices
  67.1549940750002, -134.937586420873, 12, !- X,Y,Z Vertex 1 {m}
  67.1549940750002, -134.937586420873, 0, !- X,Y,Z Vertex 2 {m}
  67.9922342304012, -123.831579986298, 0, !- X,Y,Z Vertex 3 {m}
  67.9922342304012, -123.831579986298, 12; !- X,Y,Z Vertex 4 {m}

Shading:Building:Detailed,
  Shading Surface 53,                     !- Name
  ,                                       !- Transmittance Schedule Name
  ,                                       !- Number of Vertices
  64.6429687937428, -135.715029099625, 12, !- X,Y,Z Vertex 1 {m}
  64.6429687937428, -135.715029099625, 0, !- X,Y,Z Vertex 2 {m}
  67.1549940750002, -134.937586420873, 0, !- X,Y,Z Vertex 3 {m}
  67.1549940750002, -134.937586420873, 12; !- X,Y,Z Vertex 4 {m}

Shading:Building:Detailed,
  Shading Surface 54,                     !- Name
  ,                                       !- Transmittance Schedule Name
  ,                                       !- Number of Vertices
  52.8364953365599, -146.599003009335, 12, !- X,Y,Z Vertex 1 {m}
  52.8364953365599, -146.599003009335, 0, !- X,Y,Z Vertex 2 {m}
  59.4515068079077, -144.48881221097, 0,  !- X,Y,Z Vertex 3 {m}
  59.4515068079077, -144.48881221097, 12; !- X,Y,Z Vertex 4 {m}

Shading:Building:Detailed,
  Shading Surface 55,                     !- Name
  ,                                       !- Transmittance Schedule Name
  ,                                       !- Number of Vertices
  59.4515068079077, -144.48881221097, 12, !- X,Y,Z Vertex 1 {m}
  59.4515068079077, -144.48881221097, 0,  !- X,Y,Z Vertex 2 {m}
  59.7864128958698, -140.601710017265, 0, !- X,Y,Z Vertex 3 {m}
  59.7864128958698, -140.601710017265, 12; !- X,Y,Z Vertex 4 {m}

Shading:Building:Detailed,
  Shading Surface 56,                     !- Name
  ,                                       !- Transmittance Schedule Name
  ,                                       !- Number of Vertices
  64.3917960529796, -139.157890867985, 12, !- X,Y,Z Vertex 1 {m}
  64.3917960529796, -139.157890867985, 0, !- X,Y,Z Vertex 2 {m}
  64.6429687937428, -135.715029099625, 0, !- X,Y,Z Vertex 3 {m}
  64.6429687937428, -135.715029099625, 12; !- X,Y,Z Vertex 4 {m}

Shading:Building:Detailed,
  Shading Surface 57,                     !- Name
  ,                                       !- Transmittance Schedule Name
  ,                                       !- Number of Vertices
  55.4324058844297, -164.923880681586, 12, !- X,Y,Z Vertex 1 {m}
  55.4324058844297, -164.923880681586, 0, !- X,Y,Z Vertex 2 {m}
  48.8173567389894, -164.368628228534, 0, !- X,Y,Z Vertex 3 {m}
  48.8173567389894, -164.368628228534, 12; !- X,Y,Z Vertex 4 {m}

Shading:Building:Detailed,
  Shading Surface 58,                     !- Name
  ,                                       !- Transmittance Schedule Name
  ,                                       !- Number of Vertices
  59.7864128958698, -140.601710017265, 12, !- X,Y,Z Vertex 1 {m}
  59.7864128958698, -140.601710017265, 0, !- X,Y,Z Vertex 2 {m}
  64.3917960529796, -139.157890867985, 0, !- X,Y,Z Vertex 3 {m}
  64.3917960529796, -139.157890867985, 12; !- X,Y,Z Vertex 4 {m}

Shading:Building:Detailed,
  Shading Surface 59,                     !- Name
  ,                                       !- Transmittance Schedule Name
  ,                                       !- Number of Vertices
  67.9922342304012, -123.831579986298, 12, !- X,Y,Z Vertex 1 {m}
  67.9922342304012, -123.831579986298, 0, !- X,Y,Z Vertex 2 {m}
  66.1500285427302, -118.167537603533, 0, !- X,Y,Z Vertex 3 {m}
  66.1500285427302, -118.167537603533, 12; !- X,Y,Z Vertex 4 {m}

Shading:Building:Detailed,
  Shading Surface 60,                     !- Name
  ,                                       !- Transmittance Schedule Name
  ,                                       !- Number of Vertices
  49.5708989969416, -154.040044868712, 12, !- X,Y,Z Vertex 1 {m}
  49.5708989969416, -154.040044868712, 0, !- X,Y,Z Vertex 2 {m}
  52.2504086481679, -154.262146060454, 0, !- X,Y,Z Vertex 3 {m}
  52.2504086481679, -154.262146060454, 12; !- X,Y,Z Vertex 4 {m}

Shading:Building:Detailed,
  Shading Surface 61,                     !- Name
  ,                                       !- Transmittance Schedule Name
  ,                                       !- Number of Vertices
  48.8173567389894, -164.368628228534, 12, !- X,Y,Z Vertex 1 {m}
  48.8173567389894, -164.368628228534, 0, !- X,Y,Z Vertex 2 {m}
  49.5708989969416, -154.040044868712, 0, !- X,Y,Z Vertex 3 {m}
  49.5708989969416, -154.040044868712, 12; !- X,Y,Z Vertex 4 {m}

Shading:Building:Detailed,
  Shading Surface 62,                     !- Name
  ,                                       !- Transmittance Schedule Name
  ,                                       !- Number of Vertices
  52.2504086481679, -154.262146060454, 12, !- X,Y,Z Vertex 1 {m}
  52.2504086481679, -154.262146060454, 0, !- X,Y,Z Vertex 2 {m}
  52.8364953365599, -146.599003009335, 0, !- X,Y,Z Vertex 3 {m}
  52.8364953365599, -146.599003009335, 12; !- X,Y,Z Vertex 4 {m}

Shading:Building:Detailed,
  Shading Surface 63,                     !- Name