
Version,
  22.2;                                   !- Version Identifier

Timestep,
  1;                                      !- Number of Timesteps per Hour

LifeCycleCost:Parameters,
  Life Cycle Cost Parameters,             !- Name
  EndOfYear,                              !- Discounting Convention
  ConstantDollar,                         !- Inflation Approach
  0.03,                                   !- Real Discount Rate
  ,                                       !- Nominal Discount Rate
  ,                                       !- Inflation
  ,                                       !- Base Date Month
  2011,                                   !- Base Date Year
  ,                                       !- Service Date Month
  2011,                                   !- Service Date Year
  25,                                     !- Length of Study Period in Years
  ,                                       !- Tax rate
  None;                                   !- Depreciation Method

LifeCycleCost:UsePriceEscalation,
  U.S. Avg  Commercial-Electricity,       !- Name
  Electricity,                            !- Resource
  2011,                                   !- Escalation Start Year
  January,                                !- Escalation Start Month
  0.9838,                                 !- Year Escalation 1
  0.9730,                                 !- Year Escalation 2
  0.9632,                                 !- Year Escalation 3
  0.9611,                                 !- Year Escalation 4
  0.9571,                                 !- Year Escalation 5
  0.9553,                                 !- Year Escalation 6
  0.9539,                                 !- Year Escalation 7
  0.9521,                                 !- Year Escalation 8
  0.9546,                                 !- Year Escalation 9
  0.9550,                                 !- Year Escalation 10
  0.9553,                                 !- Year Escalation 11
  0.9564,                                 !- Year Escalation 12
  0.9575,                                 !- Year Escalation 13
  0.9596,                                 !- Year Escalation 14
  0.9618,                                 !- Year Escalation 15
  0.9614,                                 !- Year Escalation 16
  0.9618,                                 !- Year Escalation 17
  0.9618,                                 !- Year Escalation 18
  0.9593,                                 !- Year Escalation 19
  0.9589,                                 !- Year Escalation 20
  0.9607,                                 !- Year Escalation 21
  0.9625,                                 !- Year Escalation 22
  0.9650,                                 !- Year Escalation 23
  0.9708,                                 !- Year Escalation 24
  0.9751,                                 !- Year Escalation 25
  0.9762,                                 !- Year Escalation 26
  0.9766,                                 !- Year Escalation 27
  0.9766,                                 !- Year Escalation 28
  0.9769,                                 !- Year Escalation 29
  0.9773;                                 !- Year Escalation 30

LifeCycleCost:UsePriceEscalation,
  U.S. Avg  Commercial-Distillate Oil,    !- Name
  FuelOilNo1,                             !- Resource
  2011,                                   !- Escalation Start Year
  January,                                !- Escalation Start Month
  0.9714,                                 !- Year Escalation 1
  0.9730,                                 !- Year Escalation 2
  0.9942,                                 !- Year Escalation 3
  1.0164,                                 !- Year Escalation 4
  1.0541,                                 !- Year Escalation 5
  1.0928,                                 !- Year Escalation 6
  1.1267,                                 !- Year Escalation 7
  1.1580,                                 !- Year Escalation 8
  1.1792,                                 !- Year Escalation 9
  1.1967,                                 !- Year Escalation 10
  1.2200,                                 !- Year Escalation 11
  1.2333,                                 !- Year Escalation 12
  1.2566,                                 !- Year Escalation 13
  1.2709,                                 !- Year Escalation 14
  1.2826,                                 !- Year Escalation 15
  1.2985,                                 !- Year Escalation 16
  1.3102,                                 !- Year Escalation 17
  1.3250,                                 !- Year Escalation 18
  1.3261,                                 !- Year Escalation 19
  1.3282,                                 !- Year Escalation 20
  1.3324,                                 !- Year Escalation 21
  1.3356,                                 !- Year Escalation 22
  1.3431,                                 !- Year Escalation 23
  1.3510,                                 !- Year Escalation 24
  1.3568,                                 !- Year Escalation 25
  1.3606,                                 !- Year Escalation 26
  1.3637,                                 !- Year Escalation 27
  1.3674,                                 !- Year Escalation 28
  1.3706,                                 !- Year Escalation 29
  1.3743;                                 !- Year Escalation 30

LifeCycleCost:UsePriceEscalation,
  U.S. Avg  Commercial-Residual Oil,      !- Name
  FuelOilNo2,                             !- Resource
  2011,                                   !- Escalation Start Year
  January,                                !- Escalation Start Month
  0.8469,                                 !- Year Escalation 1
  0.8257,                                 !- Year Escalation 2
  0.8681,                                 !- Year Escalation 3
  0.8988,                                 !- Year Escalation 4
  0.9289,                                 !- Year Escalation 5
  0.9604,                                 !- Year Escalation 6
  0.9897,                                 !- Year Escalation 7
  1.0075,                                 !- Year Escalation 8
  1.0314,                                 !- Year Escalation 9
  1.0554,                                 !- Year Escalation 10
  1.0861,                                 !- Year Escalation 11
  1.1278,                                 !- Year Escalation 12
  1.1497,                                 !- Year Escalation 13
  1.1620,                                 !- Year Escalation 14
  1.1743,                                 !- Year Escalation 15
  1.1852,                                 !- Year Escalation 16
  1.1948,                                 !- Year Escalation 17
  1.2037,                                 !- Year Escalation 18
  1.2071,                                 !- Year Escalation 19
  1.2119,                                 !- Year Escalation 20
  1.2139,                                 !- Year Escalation 21
  1.2194,                                 !- Year Escalation 22
  1.2276,                                 !- Year Escalation 23
  1.2365,                                 !- Year Escalation 24
  1.2420,                                 !- Year Escalation 25
  1.2461,                                 !- Year Escalation 26
  1.2509,                                 !- Year Escalation 27
  1.2550,                                 !- Year Escalation 28
  1.2591,                                 !- Year Escalation 29
  1.2638;                                 !- Year Escalation 30

LifeCycleCost:UsePriceEscalation,
  U.S. Avg  Commercial-Natural gas,       !- Name
  NaturalGas,                             !- Resource
  2011,                                   !- Escalation Start Year
  January,                                !- Escalation Start Month
  0.9823,                                 !- Year Escalation 1
  0.9557,                                 !- Year Escalation 2
  0.9279,                                 !- Year Escalation 3
  0.9257,                                 !- Year Escalation 4
  0.9346,                                 !- Year Escalation 5
  0.9412,                                 !- Year Escalation 6
  0.9512,                                 !- Year Escalation 7
  0.9645,                                 !- Year Escalation 8
  0.9856,                                 !- Year Escalation 9
  1.0067,                                 !- Year Escalation 10
  1.0222,                                 !- Year Escalation 11
  1.0410,                                 !- Year Escalation 12
  1.0610,                                 !- Year Escalation 13
  1.0787,                                 !- Year Escalation 14
  1.0942,                                 !- Year Escalation 15
  1.1098,                                 !- Year Escalation 16
  1.1220,                                 !- Year Escalation 17
  1.1308,                                 !- Year Escalation 18
  1.1386,                                 !- Year Escalation 19
  1.1486,                                 !- Year Escalation 20
  1.1619,                                 !- Year Escalation 21
  1.1763,                                 !- Year Escalation 22
  1.1918,                                 !- Year Escalation 23
  1.2118,                                 !- Year Escalation 24
  1.2284,                                 !- Year Escalation 25
  1.2439,                                 !- Year Escalation 26
  1.2605,                                 !- Year Escalation 27
  1.2772,                                 !- Year Escalation 28
  1.2938,                                 !- Year Escalation 29
  1.3115;                                 !- Year Escalation 30

LifeCycleCost:UsePriceEscalation,
  U.S. Avg  Commercial-Coal,              !- Name
  Coal,                                   !- Resource
  2011,                                   !- Escalation Start Year
  January,                                !- Escalation Start Month
  0.9970,                                 !- Year Escalation 1
  1.0089,                                 !- Year Escalation 2
  1.0089,                                 !- Year Escalation 3
  0.9941,                                 !- Year Escalation 4
  0.9941,                                 !- Year Escalation 5
  1.0000,                                 !- Year Escalation 6
  1.0030,                                 !- Year Escalation 7
  1.0059,                                 !- Year Escalation 8
  1.0089,                                 !- Year Escalation 9
  1.0119,                                 !- Year Escalation 10
  1.0148,                                 !- Year Escalation 11
  1.0178,                                 !- Year Escalation 12
  1.0208,                                 !- Year Escalation 13
  1.0267,                                 !- Year Escalation 14
  1.0297,                                 !- Year Escalation 15
  1.0356,                                 !- Year Escalation 16
  1.0415,                                 !- Year Escalation 17
  1.0534,                                 !- Year Escalation 18
  1.0564,                                 !- Year Escalation 19
  1.0593,                                 !- Year Escalation 20
  1.0653,                                 !- Year Escalation 21
  1.0712,                                 !- Year Escalation 22
  1.0742,                                 !- Year Escalation 23
  1.0801,                                 !- Year Escalation 24
  1.0831,                                 !- Year Escalation 25
  1.0831,                                 !- Year Escalation 26
  1.0861,                                 !- Year Escalation 27
  1.0890,                                 !- Year Escalation 28
  1.0920,                                 !- Year Escalation 29
  1.0950;                                 !- Year Escalation 30

Building,
  bld_15,                                 !- Name
  ,                                       !- North Axis {deg}
  City,                                   !- Terrain
  ,                                       !- Loads Convergence Tolerance Value {W}
  ,                                       !- Temperature Convergence Tolerance Value {deltaC}
  ,                                       !- Solar Distribution
  ,                                       !- Maximum Number of Warmup Days
  ;                                       !- Minimum Number of Warmup Days

Shading:Building:Detailed,
  Shading Surface 40,                     !- Name
  ,                                       !- Transmittance Schedule Name
  ,                                       !- Number of Vertices
  -141.178528811431, 179.252129097153, 12, !- X,Y,Z Vertex 1 {m}
  -141.178528811431, 179.252129097153, 0, !- X,Y,Z Vertex 2 {m}
  -193.513312823395, 182.251953232969, 0, !- X,Y,Z Vertex 3 {m}
  -193.513312823395, 182.251953232969, 12; !- X,Y,Z Vertex 4 {m}

Shading:Building:Detailed,
  Shading Surface 41,                     !- Name
  ,                                       !- Transmittance Schedule Name
  ,                                       !- Number of Vertices
  -141.597354867206, 171.700059689282, 12, !- X,Y,Z Vertex 1 {m}
  -141.597354867206, 171.700059689282, 0, !- X,Y,Z Vertex 2 {m}
  -141.178528811431, 179.252129097153, 0, !- X,Y,Z Vertex 3 {m}
  -141.178528811431, 179.252129097153, 12; !- X,Y,Z Vertex 4 {m}

Shading:Building:Detailed,
  Shading Surface 42,                     !- Name
  ,                                       !- Transmittance Schedule Name
  ,                                       !- Number of Vertices
  -134.647919717799, 137.049219972895, 12, !- X,Y,Z Vertex 1 {m}
  -134.647919717799, 137.049219972895, 0, !- X,Y,Z Vertex 2 {m}
  -132.637626996806, 171.144590829081, 0, !- X,Y,Z Vertex 3 {m}
  -132.637626996806, 171.144590829081, 12; !- X,Y,Z Vertex 4 {m}

Shading:Building:Detailed,
  Shading Surface 43,                     !- Name
  ,                                       !- Transmittance Schedule Name
  ,                                       !- Number of Vertices
  -201.719551726235, 177.365537920327, 12, !- X,Y,Z Vertex 1 {m}
  -201.719551726235, 177.365537920327, 0, !- X,Y,Z Vertex 2 {m}
  -203.813965321204, 141.048989024759, 0, !- X,Y,Z Vertex 3 {m}
  -203.813965321204, 141.048989024759, 12; !- X,Y,Z Vertex 4 {m}

Shading:Building:Detailed,
  Shading Surface 44,                     !- Name
  ,                                       !- Transmittance Schedule Name
  ,                                       !- Number of Vertices
  -193.513312823395, 182.251953232969, 12, !- X,Y,Z Vertex 1 {m}
  -193.513312823395, 182.251953232969, 0, !- X,Y,Z Vertex 2 {m}
  -193.848398008965, 176.921083852142, 0, !- X,Y,Z Vertex 3 {m}
  -193.848398008965, 176.921083852142, 12; !- X,Y,Z Vertex 4 {m}

Shading:Building:Detailed,
  Shading Surface 45,                     !- Name
  ,                                       !- Transmittance Schedule Name
  ,                                       !- Number of Vertices
  -132.637626996806, 171.144590829081, 12, !- X,Y,Z Vertex 1 {m}
  -132.637626996806, 171.144590829081, 0, !- X,Y,Z Vertex 2 {m}
  -141.597354867206, 171.700059689282, 0, !- X,Y,Z Vertex 3 {m}
  -141.597354867206, 171.700059689282, 12; !- X,Y,Z Vertex 4 {m}

Shading:Building:Detailed,
  Shading Surface 46,                     !- Name
  ,                                       !- Transmittance Schedule Name
  ,                                       !- Number of Vertices
  -203.813965321204, 141.048989024759, 12, !- X,Y,Z Vertex 1 {m}
  -203.813965321204, 141.048989024759, 0, !- X,Y,Z Vertex 2 {m}
  -134.647919717799, 137.049219972895, 0, !- X,Y,Z Vertex 3 {m}
  -134.647919717799, 137.049219972895, 12; !- X,Y,Z Vertex 4 {m}

Shading:Building:Detailed,
  Shading Surface 47,                     !- Name
  ,                                       !- Transmittance Schedule Name
  ,                                       !- Number of Vertices
  -193.848398008965, 176.921083852142, 12, !- X,Y,Z Vertex 1 {m}
  -193.848398008965, 176.921083852142, 0, !- X,Y,Z Vertex 2 {m}
  -201.719551726235, 177.365537920327, 0, !- X,Y,Z Vertex 3 {m}
  -201.719551726235, 177.365537920327, 12; !- X,Y,Z Vertex 4 {m}

Shading:Building:Detailed,
  Shading Surface 48,                     !- Name
  ,                                       !- Transmittance Schedule Name
  ,                                       !- Number of Vertices
  -193.513312823395, 182.251953232969, 12, !- X,Y,Z Vertex 1 {m}
  -193.848398008965, 176.921083852142, 12, !- X,Y,Z Vertex 2 {m}
  -201.719551726235, 177.365537920327, 12, !- X,Y,Z Vertex 3 {m}
  -203.813965321204, 141.048989024759, 12, !- X,Y,Z Vertex 4 {m}
  -134.647919717799, 137.049219972895, 12, !- X,Y,Z Vertex 5 {m}
  -132.637626996806, 171.144590829081, 12, !- X,Y,Z Vertex 6 {m}
  -141.597354867206, 171.700059689282, 12, !- X,Y,Z Vertex 7 {m}
  -141.178528811431, 179.252129097153, 12; !- X,Y,Z Vertex 8 {m}

Shading:Building:Detailed,
  Shading Surface 49,                     !- Name
  ,                                       !- Transmittance Schedule Name
  ,                                       !- Number of Vertices
  -141.178528811431, 179.252129097153, 0, !- X,Y,Z Vertex 1 {m}
  -141.597354867206, 171.700059689282, 0, !- X,Y,Z Vertex 2 {m}
  -132.637626996806, 171.144590829081, 0, !- X,Y,Z Vertex 3 {m}
  -134.647919717799, 137.049219972895, 0, !- X,Y,Z Vertex 4 {m}
  -203.813965321204, 141.048989024759, 0, !- X,Y,Z Vertex 5 {m}
  -201.719551726235, 177.365537920327, 0, !- X,Y,Z Vertex 6 {m}
  -193.848398008965, 176.921083852142, 0, !- X,Y,Z Vertex 7 {m}
  -193.513312823395, 182.251953232969, 0; !- X,Y,Z Vertex 8 {m}

Shading:Building:Detailed,
  Shading Surface 50,                     !- Name
  ,                                       !- Transmittance Schedule Name
  ,                                       !- Number of Vertices
  -38.1839414957259, 98.3992089743978, 12, !- X,Y,Z Vertex 1 {m}
  -38.1839414957259, 98.3992089743978, 0, !- X,Y,Z Vertex 2 {m}
  -37.7652181065888, 106.062343425426, 0, !- X,Y,Z Vertex 3 {m}
  -37.7652181065888, 106.062343425426, 12; !- X,Y,Z Vertex 4 {m}

Shading:Building:Detailed,
  Shading Surface 51,                     !- Name
  ,                                       !- Transmittance Schedule Name
  ,                                       !- Number of Vertices
  -19.1757106858979, 97.177474507991, 12, !- X,Y,Z Vertex 1 {m}
  -19.1757106858979, 97.177474507991, 0,  !- X,Y,Z Vertex 2 {m}
  -38.1839414957259, 98.3992089743978, 0, !- X,Y,Z Vertex 3 {m}
  -38.1839414957259, 98.3992089743978, 12; !- X,Y,Z Vertex 4 {m}

Shading:Building:Detailed,
  Shading Surface 52,                     !- Name
  ,                                       !- Transmittance Schedule Name
  ,                                       !- Number of Vertices
  -20.0968552313652, 82.5175637109884, 12, !- X,Y,Z Vertex 1 {m}
  -20.0968552313652, 82.5175637109884, 0, !- X,Y,Z Vertex 2 {m}
  -19.1757106858979, 97.177474507991, 0,  !- X,Y,Z Vertex 3 {m}
  -19.1757106858979, 97.177474507991, 12; !- X,Y,Z Vertex 4 {m}

Shading:Building:Detailed,
  Shading Surface 53,                     !- Name
  ,                                       !- Transmittance Schedule Name
  ,                                       !- Number of Vertices
  -74.2745934034923, 85.8497139076512, 12, !- X,Y,Z Vertex 1 {m}
  -74.2745934034923, 85.8497139076512, 0, !- X,Y,Z Vertex 2 {m}
  -20.0968552313652, 82.5175637109884, 0, !- X,Y,Z Vertex 3 {m}
  -20.0968552313652, 82.5175637109884, 12; !- X,Y,Z Vertex 4 {m}

Shading:Building:Detailed,
  Shading Surface 54,                     !- Name
  ,                                       !- Transmittance Schedule Name
  ,                                       !- Number of Vertices
  -73.269596587088, 101.175976775042, 12, !- X,Y,Z Vertex 1 {m}
  -73.269596587088, 101.175976775042, 0,  !- X,Y,Z Vertex 2 {m}
  -74.2745934034923, 85.8497139076512, 0, !- X,Y,Z Vertex 3 {m}
  -74.2745934034923, 85.8497139076512, 12; !- X,Y,Z Vertex 4 {m}

Shading:Building:Detailed,
  Shading Surface 55,                     !- Name
  ,                                       !- Transmittance Schedule Name
  ,                                       !- Number of Vertices
  -57.4433716252967, 100.176294894968, 12, !- X,Y,Z Vertex 1 {m}
  -57.4433716252967, 100.176294894968, 0, !- X,Y,Z Vertex 2 {m}
  -73.269596587088, 101.175976775042, 0,  !- X,Y,Z Vertex 3 {m}
  -73.269596587088, 101.175976775042, 12; !- X,Y,Z Vertex 4 {m}

Shading:Building:Detailed,
  Shading Surface 56,                     !- Name
  ,                                       !- Transmittance Schedule Name
  ,                                       !- Number of Vertices
  -57.024632386462, 107.284128495646, 12, !- X,Y,Z Vertex 1 {m}
  -57.024632386462, 107.284128495646, 0,  !- X,Y,Z Vertex 2 {m}
  -57.4433716252967, 100.176294894968, 0, !- X,Y,Z Vertex 3 {m}
  -57.4433716252967, 100.176294894968, 12; !- X,Y,Z Vertex 4 {m}

Shading:Building:Detailed,
  Shading Surface 57,                     !- Name
  ,                                       !- Transmittance Schedule Name
  ,                                       !- Number of Vertices
  -37.7652181065888, 106.062343425426, 0, !- X,Y,Z Vertex 1 {m}
  -38.1839414957259, 98.3992089743978, 0, !- X,Y,Z Vertex 2 {m}
  -19.1757106858979, 97.177474507991, 0,  !- X,Y,Z Vertex 3 {m}
  -20.0968552313652, 82.5175637109884, 0, !- X,Y,Z Vertex 4 {m}
  -74.2745934034923, 85.8497139076512, 0, !- X,Y,Z Vertex 5 {m}
  -73.269596587088, 101.175976775042, 0,  !- X,Y,Z Vertex 6 {m}
  -57.4433716252967, 100.176294894968, 0, !- X,Y,Z Vertex 7 {m}
  -57.024632386462, 107.284128495646, 0;  !- X,Y,Z Vertex 8 {m}

Shading:Building:Detailed,
  Shading Surface 58,                     !- Name
  ,                                       !- Transmittance Schedule Name
  ,                                       !- Number of Vertices
  -57.024632386462, 107.284128495646, 12, !- X,Y,Z Vertex 1 {m}
  -57.4433716252967, 100.176294894968, 12, !- X,Y,Z Vertex 2 {m}
  -73.269596587088, 101.175976775042, 12, !- X,Y,Z Vertex 3 {m}
  -74.2745934034923, 85.8497139076512, 12, !- X,Y,Z Vertex 4 {m}
  -20.0968552313652, 82.5175637109884, 12, !- X,Y,Z Vertex 5 {m}
  -19.1757106858979, 97.177474507991, 12, !- X,Y,Z Vertex 6 {m}
  -38.1839414957259, 98.3992089743978, 12, !- X,Y,Z Vertex 7 {m}
  -37.7652181065888, 106.062343425426, 12; !- X,Y,Z Vertex 8 {m}

Shading:Building:Detailed,
  Shading Surface 59,                     !- Name
  ,                                       !- Transmittance Schedule Name
  ,                                       !- Number of Vertices
  -37.7652181065888, 106.062343425426, 12, !- X,Y,Z Vertex 1 {m}
  -37.7652181065888, 106.062343425426, 0, !- X,Y,Z Vertex 2 {m}
  -57.024632386462, 107.284128495646, 0,  !- X,Y,Z Vertex 3 {m}
  -57.024632386462, 107.284128495646, 12; !- X,Y,Z Vertex 4 {m}

Shading:Building:Detailed,
  Shading Surface 60,                     !- Name
  ,                                       !- Transmittance Schedule Name
  ,                                       !- Number of Vertices
  214.367693992517, 40.5400384965957, 0,  !- X,Y,Z Vertex 1 {m}
  214.618781506686, 44.7603236628387, 0,  !- X,Y,Z Vertex 2 {m}
  236.306797380742, 43.3172172449471, 0,  !- X,Y,Z Vertex 3 {m}
  236.474199804215, 45.5384215144133, 0,  !- X,Y,Z Vertex 4 {m}
  256.152517634614, 44.2063691456251, 0,  !- X,Y,Z Vertex 5 {m}
  255.901446399099, 40.2082024279287, 0,  !- X,Y,Z Vertex 6 {m}
  284.623447469544, 38.2101915771071, 0,  !- X,Y,Z Vertex 7 {m}
  282.69858006212, 10.1119521903423, 0,   !- X,Y,Z Vertex 8 {m}
  291.658544016118, 9.44594662405117, 0,  !- X,Y,Z Vertex 9 {m}
  290.319512135324, -9.87853542484243, 0, !- X,Y,Z Vertex 10 {m}
  280.940834712988, -9.21254442425803, 0, !- X,Y,Z Vertex 11 {m}
  280.020239262971, -22.7618915083281, 0, !- X,Y,Z Vertex 12 {m}
  250.628093803452, -20.7638857883724, 0, !- X,Y,Z Vertex 13 {m}
  250.460701831425, -23.2072100132427, 0, !- X,Y,Z Vertex 14 {m}
  197.789327817826, -19.5438566180746, 0, !- X,Y,Z Vertex 15 {m}
  199.463449184173, 3.7787748875284, 0,   !- X,Y,Z Vertex 16 {m}
  195.611504223381, 4.00079006007014, 0,  !- X,Y,Z Vertex 17 {m}
  194.104805160358, -17.7669970722728, 0, !- X,Y,Z Vertex 18 {m}
  185.144816596798, -17.1008712674706, 0, !- X,Y,Z Vertex 19 {m}
  185.228526337268, -15.9902698270911, 0, !- X,Y,Z Vertex 20 {m}
  132.72471551353, -12.4375005132514, 0,  !- X,Y,Z Vertex 21 {m}
  133.143295600558, -6.44025653630587, 0, !- X,Y,Z Vertex 22 {m}
  136.074124940381, -6.55126218553709, 0, !- X,Y,Z Vertex 23 {m}
  139.673850326731, 45.7580363946999, 0;  !- X,Y,Z Vertex 24 {m}

Shading:Building:Detailed,
  Shading Surface 61,                     !- Name
  ,                                       !- Transmittance Schedule Name
  ,                                       !- Number of Vertices
  195.611504223381, 4.00079006007014, 12, !- X,Y,Z Vertex 1 {m}
  195.611504223381, 4.00079006007014, 0,  !- X,Y,Z Vertex 2 {m}
  199.463449184173, 3.7787748875284, 0,   !- X,Y,Z Vertex 3 {m}
  199.463449184173, 3.7787748875284, 12;  !- X,Y,Z Vertex 4 {m}

Shading:Building:Detailed,
  Shading Surface 62,                     !- Name
  ,                                       !- Transmittance Schedule Name
  ,                                       !- Number of Vertices
  250.628093803452, -20.7638857883724, 12, !- X,Y,Z Vertex 1 {m}
  250.628093803452, -20.7638857883724, 0, !- X,Y,Z Vertex 2 {m}
  280.020239262971, -22.7618915083281, 0, !- X,Y,Z Vertex 3 {m}
  280.020239262971, -22.7618915083281, 12; !- X,Y,Z Vertex 4 {m}

Shading:Building:Detailed,
  Shading Surface 63,                     !- Name
  ,                                       !- Transmittance Schedule Name
  ,                                       !- Number of Vertices
  185.228526337268, -15.9902698270911, 12, !- X,Y,Z Vertex 1 {m}
  185.228526337268, -15.9902698270911, 0, !- X,Y,Z Vertex 2 {m}
  185.144816596798, -17.1008712674706, 0, !- X,Y,Z Vertex 3 {m}
  185.144816596798, -17.1008712674706, 12; !- X,Y,Z Vertex 4 {m}

Shading:Building:Detailed,
  Shading Surface 64,                     !- Name
  ,                                       !- Transmittance Schedule Name
  ,                                       !- Number of Vertices
  139.673850326731, 45.7580363946999, 12, !- X,Y,Z Vertex 1 {m}
  139.673850326731, 45.7580363946999, 0,  !- X,Y,Z Vertex 2 {m}
  136.074124940381, -6.55126218553709, 0, !- X,Y,Z Vertex 3 {m}
  136.074124940381, -6.55126218553709, 12; !- X,Y,Z Vertex 4 {m}

Shading:Building:Detailed,
  Shading Surface 65,                     !- Name
  ,                                       !- Transmittance Schedule Name
  ,                                       !- Number of Vertices
  194.104805160358, -17.7669970722728, 12, !- X,Y,Z Vertex 1 {m}
  194.104805160358, -17.7669970722728, 0, !- X,Y,Z Vertex 2 {m}
  195.611504223381, 4.00079006007014, 0,  !- X,Y,Z Vertex 3 {m}
  195.611504223381, 4.00079006007014, 12; !- X,Y,Z Vertex 4 {m}

Shading:Building:Detailed,
  Shading Surface 66,                     !- Name
  ,                                       !- Transmittance Schedule Name
  ,                                       !- Number of Vertices
  280.940834712988, -9.21254442425803, 12, !- X,Y,Z Vertex 1 {m}
  280.940834712988, -9.21254442425803, 0, !- X,Y,Z Vertex 2 {m}
  290.319512135324, -9.87853542484243, 0, !- X,Y,Z Vertex 3 {m}
  290.319512135324, -9.87853542484243, 12; !- X,Y,Z Vertex 4 {m}

Shading:Building:Detailed,
  Shading Surface 67,                     !- Name
  ,                                       !- Transmittance Schedule Name
  ,                                       !- Number of Vertices
  250.460701831425, -23.2072100132427, 12, !- X,Y,Z Vertex 1 {m}
  250.460701831425, -23.2072100132427, 0, !- X,Y,Z Vertex 2 {m}
  250.628093803452, -20.7638857883724, 0, !- X,Y,Z Vertex 3 {m}
  250.628093803452, -20.7638857883724, 12; !- X,Y,Z Vertex 4 {m}

Shading:Building:Detailed,
  Shading Surface 68,                     !- Name
  ,                                       !- Transmittance Schedule Name
  ,                                       !- Number of Vertices
  255.901446399099, 40.2082024279287, 12, !- X,Y,Z Vertex 1 {m}
  255.901446399099, 40.2082024279287, 0,  !- X,Y,Z Vertex 2 {m}
  256.152517634614, 44.2063691456251, 0,  !- X,Y,Z Vertex 3 {m}
  256.152517634614, 44.2063691456251, 12; !- X,Y,Z Vertex 4 {m}

Shading:Building:Detailed,
  Shading Surface 69,                     !- Name
  ,                                       !- Transmittance Schedule Name
  ,                                       !- Number of Vertices
  280.020239262971, -22.7618915083281, 12, !- X,Y,Z Vertex 1 {m}
  280.020239262971, -22.7618915083281, 0, !- X,Y,Z Vertex 2 {m}
  280.940834712988, -9.21254442425803, 0, !- X,Y,Z Vertex 3 {m}
  280.940834712988, -9.21254442425803, 12; !- X,Y,Z Vertex 4 {m}

Shading:Building:Detailed,
  Shading Surface 70,                     !- Name
  ,                                       !- Transmittance Schedule Name
  ,                                       !- Number of Vertices
  197.789327817826, -19.5438566180746, 12, !- X,Y,Z Vertex 1 {m}
  197.789327817826, -19.5438566180746, 0, !- X,Y,Z Vertex 2 {m}
  250.460701831425, -23.2072100132427, 0, !- X,Y,Z Vertex 3 {m}
  250.460701831425, -23.2072100132427, 12; !- X,Y,Z Vertex 4 {m}

Shading:Building:Detailed,
  Shading Surface 71,                     !- Name
  ,                                       !- Transmittance Schedule Name
  ,                                       !- Number of Vertices
  139.673850326731, 45.7580363946999, 12, !- X,Y,Z Vertex 1 {m}
  136.074124940381, -6.55126218553709, 12, !- X,Y,Z Vertex 2 {m}
  133.143295600558, -6.44025653630587, 12, !- X,Y,Z Vertex 3 {m}
  132.72471551353, -12.4375005132514, 12, !- X,Y,Z Vertex 4 {m}