    ConvergenceLimits,
      0,                       !- Minimum System Timestep {minutes}
      25;                      !- Maximum HVAC Iterations
    
Version,
  22.2;                                   !- Version Identifier

Timestep,
  1;                                      !- Number of Timesteps per Hour

LifeCycleCost:Parameters,
  Life Cycle Cost Parameters,             !- Name
  EndOfYear,                              !- Discounting Convention
  ConstantDollar,                         !- Inflation Approach
  0.03,                                   !- Real Discount Rate
  ,                                       !- Nominal Discount Rate
  ,                                       !- Inflation
  ,                                       !- Base Date Month
  2011,                                   !- Base Date Year
  ,                                       !- Service Date Month
  2011,                                   !- Service Date Year
  25,                                     !- Length of Study Period in Years
  ,                                       !- Tax rate
  None;                                   !- Depreciation Method

LifeCycleCost:UsePriceEscalation,
  U.S. Avg  Commercial-Electricity,       !- Name
  Electricity,                            !- Resource
  2011,                                   !- Escalation Start Year
  January,                                !- Escalation Start Month
  0.9838,                                 !- Year Escalation 1
  0.9730,                                 !- Year Escalation 2
  0.9632,                                 !- Year Escalation 3
  0.9611,                                 !- Year Escalation 4
  0.9571,                                 !- Year Escalation 5
  0.9553,                                 !- Year Escalation 6
  0.9539,                                 !- Year Escalation 7
  0.9521,                                 !- Year Escalation 8
  0.9546,                                 !- Year Escalation 9
  0.9550,                                 !- Year Escalation 10
  0.9553,                                 !- Year Escalation 11
  0.9564,                                 !- Year Escalation 12
  0.9575,                                 !- Year Escalation 13
  0.9596,                                 !- Year Escalation 14
  0.9618,                                 !- Year Escalation 15
  0.9614,                                 !- Year Escalation 16
  0.9618,                                 !- Year Escalation 17
  0.9618,                                 !- Year Escalation 18
  0.9593,                                 !- Year Escalation 19
  0.9589,                                 !- Year Escalation 20
  0.9607,                                 !- Year Escalation 21
  0.9625,                                 !- Year Escalation 22
  0.9650,                                 !- Year Escalation 23
  0.9708,                                 !- Year Escalation 24
  0.9751,                                 !- Year Escalation 25
  0.9762,                                 !- Year Escalation 26
  0.9766,                                 !- Year Escalation 27
  0.9766,                                 !- Year Escalation 28
  0.9769,                                 !- Year Escalation 29
  0.9773;                                 !- Year Escalation 30

LifeCycleCost:UsePriceEscalation,
  U.S. Avg  Commercial-Distillate Oil,    !- Name
  FuelOilNo1,                             !- Resource
  2011,                                   !- Escalation Start Year
  January,                                !- Escalation Start Month
  0.9714,                                 !- Year Escalation 1
  0.9730,                                 !- Year Escalation 2
  0.9942,                                 !- Year Escalation 3
  1.0164,                                 !- Year Escalation 4
  1.0541,                                 !- Year Escalation 5
  1.0928,                                 !- Year Escalation 6
  1.1267,                                 !- Year Escalation 7
  1.1580,                                 !- Year Escalation 8
  1.1792,                                 !- Year Escalation 9
  1.1967,                                 !- Year Escalation 10
  1.2200,                                 !- Year Escalation 11
  1.2333,                                 !- Year Escalation 12
  1.2566,                                 !- Year Escalation 13
  1.2709,                                 !- Year Escalation 14
  1.2826,                                 !- Year Escalation 15
  1.2985,                                 !- Year Escalation 16
  1.3102,                                 !- Year Escalation 17
  1.3250,                                 !- Year Escalation 18
  1.3261,                                 !- Year Escalation 19
  1.3282,                                 !- Year Escalation 20
  1.3324,                                 !- Year Escalation 21
  1.3356,                                 !- Year Escalation 22
  1.3431,                                 !- Year Escalation 23
  1.3510,                                 !- Year Escalation 24
  1.3568,                                 !- Year Escalation 25
  1.3606,                                 !- Year Escalation 26
  1.3637,                                 !- Year Escalation 27
  1.3674,                                 !- Year Escalation 28
  1.3706,                                 !- Year Escalation 29
  1.3743;                                 !- Year Escalation 30

LifeCycleCost:UsePriceEscalation,
  U.S. Avg  Commercial-Residual Oil,      !- Name
  FuelOilNo2,                             !- Resource
  2011,                                   !- Escalation Start Year
  January,                                !- Escalation Start Month
  0.8469,                                 !- Year Escalation 1
  0.8257,                                 !- Year Escalation 2
  0.8681,                                 !- Year Escalation 3
  0.8988,                                 !- Year Escalation 4
  0.9289,                                 !- Year Escalation 5
  0.9604,                                 !- Year Escalation 6
  0.9897,                                 !- Year Escalation 7
  1.0075,                                 !- Year Escalation 8
  1.0314,                                 !- Year Escalation 9
  1.0554,                                 !- Year Escalation 10
  1.0861,                                 !- Year Escalation 11
  1.1278,                                 !- Year Escalation 12
  1.1497,                                 !- Year Escalation 13
  1.1620,                                 !- Year Escalation 14
  1.1743,                                 !- Year Escalation 15
  1.1852,                                 !- Year Escalation 16
  1.1948,                                 !- Year Escalation 17
  1.2037,                                 !- Year Escalation 18
  1.2071,                                 !- Year Escalation 19
  1.2119,                                 !- Year Escalation 20
  1.2139,                                 !- Year Escalation 21
  1.2194,                                 !- Year Escalation 22
  1.2276,                                 !- Year Escalation 23
  1.2365,                                 !- Year Escalation 24
  1.2420,                                 !- Year Escalation 25
  1.2461,                                 !- Year Escalation 26
  1.2509,                                 !- Year Escalation 27
  1.2550,                                 !- Year Escalation 28
  1.2591,                                 !- Year Escalation 29
  1.2638;                                 !- Year Escalation 30

LifeCycleCost:UsePriceEscalation,
  U.S. Avg  Commercial-Natural gas,       !- Name
  NaturalGas,                             !- Resource
  2011,                                   !- Escalation Start Year
  January,                                !- Escalation Start Month
  0.9823,                                 !- Year Escalation 1
  0.9557,                                 !- Year Escalation 2
  0.9279,                                 !- Year Escalation 3
  0.9257,                                 !- Year Escalation 4
  0.9346,                                 !- Year Escalation 5
  0.9412,                                 !- Year Escalation 6
  0.9512,                                 !- Year Escalation 7
  0.9645,                                 !- Year Escalation 8
  0.9856,                                 !- Year Escalation 9
  1.0067,                                 !- Year Escalation 10
  1.0222,                                 !- Year Escalation 11
  1.0410,                                 !- Year Escalation 12
  1.0610,                                 !- Year Escalation 13
  1.0787,                                 !- Year Escalation 14
  1.0942,                                 !- Year Escalation 15
  1.1098,                                 !- Year Escalation 16
  1.1220,                                 !- Year Escalation 17
  1.1308,                                 !- Year Escalation 18
  1.1386,                                 !- Year Escalation 19
  1.1486,                                 !- Year Escalation 20
  1.1619,                                 !- Year Escalation 21
  1.1763,                                 !- Year Escalation 22
  1.1918,                                 !- Year Escalation 23
  1.2118,                                 !- Year Escalation 24
  1.2284,                                 !- Year Escalation 25
  1.2439,                                 !- Year Escalation 26
  1.2605,                                 !- Year Escalation 27
  1.2772,                                 !- Year Escalation 28
  1.2938,                                 !- Year Escalation 29
  1.3115;                                 !- Year Escalation 30

LifeCycleCost:UsePriceEscalation,
  U.S. Avg  Commercial-Coal,              !- Name
  Coal,                                   !- Resource
  2011,                                   !- Escalation Start Year
  January,                                !- Escalation Start Month
  0.9970,                                 !- Year Escalation 1
  1.0089,                                 !- Year Escalation 2
  1.0089,                                 !- Year Escalation 3
  0.9941,                                 !- Year Escalation 4
  0.9941,                                 !- Year Escalation 5
  1.0000,                                 !- Year Escalation 6
  1.0030,                                 !- Year Escalation 7
  1.0059,                                 !- Year Escalation 8
  1.0089,                                 !- Year Escalation 9
  1.0119,                                 !- Year Escalation 10
  1.0148,                                 !- Year Escalation 11
  1.0178,                                 !- Year Escalation 12
  1.0208,                                 !- Year Escalation 13
  1.0267,                                 !- Year Escalation 14
  1.0297,                                 !- Year Escalation 15
  1.0356,                                 !- Year Escalation 16
  1.0415,                                 !- Year Escalation 17
  1.0534,                                 !- Year Escalation 18
  1.0564,                                 !- Year Escalation 19
  1.0593,                                 !- Year Escalation 20
  1.0653,                                 !- Year Escalation 21
  1.0712,                                 !- Year Escalation 22
  1.0742,                                 !- Year Escalation 23
  1.0801,                                 !- Year Escalation 24
  1.0831,                                 !- Year Escalation 25
  1.0831,                                 !- Year Escalation 26
  1.0861,                                 !- Year Escalation 27
  1.0890,                                 !- Year Escalation 28
  1.0920,                                 !- Year Escalation 29
  1.0950;                                 !- Year Escalation 30

Building,
  bld_31,                                 !- Name
  ,                                       !- North Axis {deg}
  City,                                   !- Terrain
  ,                                       !- Loads Convergence Tolerance Value {W}
  ,                                       !- Temperature Convergence Tolerance Value {deltaC}
  ,                                       !- Solar Distribution
  ,                                       !- Maximum Number of Warmup Days
  ;                                       !- Minimum Number of Warmup Days

Shading:Building:Detailed,
  Shading Surface 1,                      !- Name
  ,                                       !- Transmittance Schedule Name
  ,                                       !- Number of Vertices
  -254.799764802924, 32.8782278744343, 12, !- X,Y,Z Vertex 1 {m}
  -254.799764802924, 32.8782278744343, 0, !- X,Y,Z Vertex 2 {m}
  -254.212976637628, 51.6473485578081, 0, !- X,Y,Z Vertex 3 {m}
  -254.212976637628, 51.6473485578081, 12; !- X,Y,Z Vertex 4 {m}

Shading:Building:Detailed,
  Shading Surface 2,                      !- Name
  ,                                       !- Transmittance Schedule Name
  ,                                       !- Number of Vertices
  -263.424264062226, 33.1006554068612, 12, !- X,Y,Z Vertex 1 {m}
  -263.424264062226, 33.1006554068612, 0, !- X,Y,Z Vertex 2 {m}
  -254.799764802924, 32.8782278744343, 0, !- X,Y,Z Vertex 3 {m}
  -254.799764802924, 32.8782278744343, 12; !- X,Y,Z Vertex 4 {m}

Shading:Building:Detailed,
  Shading Surface 3,                      !- Name
  ,                                       !- Transmittance Schedule Name
  ,                                       !- Number of Vertices
  -254.212976637628, 51.6473485578081, 0, !- X,Y,Z Vertex 1 {m}
  -254.799764802924, 32.8782278744343, 0, !- X,Y,Z Vertex 2 {m}
  -263.424264062226, 33.1006554068612, 0, !- X,Y,Z Vertex 3 {m}
  -262.837453640141, 51.8697754001544, 0; !- X,Y,Z Vertex 4 {m}

Shading:Building:Detailed,
  Shading Surface 4,                      !- Name
  ,                                       !- Transmittance Schedule Name
  ,                                       !- Number of Vertices
  -262.837453640141, 51.8697754001544, 12, !- X,Y,Z Vertex 1 {m}
  -262.837453640141, 51.8697754001544, 0, !- X,Y,Z Vertex 2 {m}
  -263.424264062226, 33.1006554068612, 0, !- X,Y,Z Vertex 3 {m}
  -263.424264062226, 33.1006554068612, 12; !- X,Y,Z Vertex 4 {m}

Shading:Building:Detailed,
  Shading Surface 5,                      !- Name
  ,                                       !- Transmittance Schedule Name
  ,                                       !- Number of Vertices
  -254.212976637628, 51.6473485578081, 12, !- X,Y,Z Vertex 1 {m}
  -254.212976637628, 51.6473485578081, 0, !- X,Y,Z Vertex 2 {m}
  -262.837453640141, 51.8697754001544, 0, !- X,Y,Z Vertex 3 {m}
  -262.837453640141, 51.8697754001544, 12; !- X,Y,Z Vertex 4 {m}

Shading:Building:Detailed,
  Shading Surface 6,                      !- Name
  ,                                       !- Transmittance Schedule Name
  ,                                       !- Number of Vertices
  -262.837453640141, 51.8697754001544, 12, !- X,Y,Z Vertex 1 {m}
  -263.424264062226, 33.1006554068612, 12, !- X,Y,Z Vertex 2 {m}
  -254.799764802924, 32.8782278744343, 12, !- X,Y,Z Vertex 3 {m}
  -254.212976637628, 51.6473485578081, 12; !- X,Y,Z Vertex 4 {m}

Shading:Building:Detailed,
  Shading Surface 33,                     !- Name
  ,                                       !- Transmittance Schedule Name
  ,                                       !- Number of Vertices
  -79.2115791904822, 25.0999921848701, 12, !- X,Y,Z Vertex 1 {m}
  -79.2115791904822, 25.0999921848701, 0, !- X,Y,Z Vertex 2 {m}
  -79.7140488729021, 18.6585174660577, 0, !- X,Y,Z Vertex 3 {m}
  -79.7140488729021, 18.6585174660577, 12; !- X,Y,Z Vertex 4 {m}

Shading:Building:Detailed,
  Shading Surface 34,                     !- Name
  ,                                       !- Transmittance Schedule Name
  ,                                       !- Number of Vertices
  -79.7140488729021, 18.6585174660577, 12, !- X,Y,Z Vertex 1 {m}
  -79.7140488729021, 18.6585174660577, 0, !- X,Y,Z Vertex 2 {m}
  -69.6660669732227, 17.8809941683387, 0, !- X,Y,Z Vertex 3 {m}
  -69.6660669732227, 17.8809941683387, 12; !- X,Y,Z Vertex 4 {m}

Shading:Building:Detailed,
  Shading Surface 35,                     !- Name
  ,                                       !- Transmittance Schedule Name
  ,                                       !- Number of Vertices
  -69.6660669732227, 17.8809941683387, 12, !- X,Y,Z Vertex 1 {m}
  -69.6660669732227, 17.8809941683387, 0, !- X,Y,Z Vertex 2 {m}
  -68.9123718495457, 27.9874473353458, 0, !- X,Y,Z Vertex 3 {m}
  -68.9123718495457, 27.9874473353458, 12; !- X,Y,Z Vertex 4 {m}

Shading:Building:Detailed,
  Shading Surface 36,                     !- Name
  ,                                       !- Transmittance Schedule Name
  ,                                       !- Number of Vertices
  -68.9123718495457, 27.9874473353458, 12, !- X,Y,Z Vertex 1 {m}
  -68.9123718495457, 27.9874473353458, 0, !- X,Y,Z Vertex 2 {m}
  -73.0990253535641, 28.3206682584692, 0, !- X,Y,Z Vertex 3 {m}
  -73.0990253535641, 28.3206682584692, 12; !- X,Y,Z Vertex 4 {m}

Shading:Building:Detailed,
  Shading Surface 37,                     !- Name
  ,                                       !- Transmittance Schedule Name
  ,                                       !- Number of Vertices
  -96.3768614425956, 26.4329196181936, 12, !- X,Y,Z Vertex 1 {m}
  -96.3768614425956, 26.4329196181936, 0, !- X,Y,Z Vertex 2 {m}
  -79.2115791904822, 25.0999921848701, 0, !- X,Y,Z Vertex 3 {m}
  -79.2115791904822, 25.0999921848701, 12; !- X,Y,Z Vertex 4 {m}

Shading:Building:Detailed,
  Shading Surface 38,                     !- Name
  ,                                       !- Transmittance Schedule Name
  ,                                       !- Number of Vertices
  -72.5128147368685, 36.2059227752099, 0, !- X,Y,Z Vertex 1 {m}
  -73.0990253535641, 28.3206682584692, 0, !- X,Y,Z Vertex 2 {m}
  -68.9123718495457, 27.9874473353458, 0, !- X,Y,Z Vertex 3 {m}
  -69.6660669732227, 17.8809941683387, 0, !- X,Y,Z Vertex 4 {m}
  -79.7140488729021, 18.6585174660577, 0, !- X,Y,Z Vertex 5 {m}
  -79.2115791904822, 25.0999921848701, 0, !- X,Y,Z Vertex 6 {m}
  -96.3768614425956, 26.4329196181936, 0, !- X,Y,Z Vertex 7 {m}
  -95.4556450149387, 37.9831480318766, 0; !- X,Y,Z Vertex 8 {m}

Shading:Building:Detailed,
  Shading Surface 39,                     !- Name
  ,                                       !- Transmittance Schedule Name
  ,                                       !- Number of Vertices
  -95.4556450149387, 37.9831480318766, 12, !- X,Y,Z Vertex 1 {m}
  -95.4556450149387, 37.9831480318766, 0, !- X,Y,Z Vertex 2 {m}
  -96.3768614425956, 26.4329196181936, 0, !- X,Y,Z Vertex 3 {m}
  -96.3768614425956, 26.4329196181936, 12; !- X,Y,Z Vertex 4 {m}

Shading:Building:Detailed,
  Shading Surface 40,                     !- Name
  ,                                       !- Transmittance Schedule Name
  ,                                       !- Number of Vertices
  -72.5128147368685, 36.2059227752099, 12, !- X,Y,Z Vertex 1 {m}
  -72.5128147368685, 36.2059227752099, 0, !- X,Y,Z Vertex 2 {m}
  -95.4556450149387, 37.9831480318766, 0, !- X,Y,Z Vertex 3 {m}
  -95.4556450149387, 37.9831480318766, 12; !- X,Y,Z Vertex 4 {m}

Shading:Building:Detailed,
  Shading Surface 41,                     !- Name
  ,                                       !- Transmittance Schedule Name
  ,                                       !- Number of Vertices
  -95.4556450149387, 37.9831480318766, 12, !- X,Y,Z Vertex 1 {m}
  -96.3768614425956, 26.4329196181936, 12, !- X,Y,Z Vertex 2 {m}
  -79.2115791904822, 25.0999921848701, 12, !- X,Y,Z Vertex 3 {m}
  -79.7140488729021, 18.6585174660577, 12, !- X,Y,Z Vertex 4 {m}
  -69.6660669732227, 17.8809941683387, 12, !- X,Y,Z Vertex 5 {m}
  -68.9123718495457, 27.9874473353458, 12, !- X,Y,Z Vertex 6 {m}
  -73.0990253535641, 28.3206682584692, 12, !- X,Y,Z Vertex 7 {m}
  -72.5128147368685, 36.2059227752099, 12; !- X,Y,Z Vertex 8 {m}

Shading:Building:Detailed,
  Shading Surface 42,                     !- Name
  ,                                       !- Transmittance Schedule Name
  ,                                       !- Number of Vertices
  -73.0990253535641, 28.3206682584692, 12, !- X,Y,Z Vertex 1 {m}
  -73.0990253535641, 28.3206682584692, 0, !- X,Y,Z Vertex 2 {m}
  -72.5128147368685, 36.2059227752099, 0, !- X,Y,Z Vertex 3 {m}
  -72.5128147368685, 36.2059227752099, 12; !- X,Y,Z Vertex 4 {m}

Shading:Building:Detailed,
  Shading Surface 43,                     !- Name
  ,                                       !- Transmittance Schedule Name
  ,                                       !- Number of Vertices
  -62.4650081198944, 17.7698686990849, 12, !- X,Y,Z Vertex 1 {m}
  -62.4650081198944, 17.7698686990849, 0, !- X,Y,Z Vertex 2 {m}
  -54.4266164866234, 17.6587440451862, 0, !- X,Y,Z Vertex 3 {m}
  -54.4266164866234, 17.6587440451862, 12; !- X,Y,Z Vertex 4 {m}

Shading:Building:Detailed,
  Shading Surface 44,                     !- Name
  ,                                       !- Transmittance Schedule Name
  ,                                       !- Number of Vertices
  -62.1298785459123, 40.7592868557866, 12, !- X,Y,Z Vertex 1 {m}
  -62.1298785459123, 40.7592868557866, 0, !- X,Y,Z Vertex 2 {m}
  -62.4650081198944, 17.7698686990849, 0, !- X,Y,Z Vertex 3 {m}
  -62.4650081198944, 17.7698686990849, 12; !- X,Y,Z Vertex 4 {m}

Shading:Building:Detailed,
  Shading Surface 45,                     !- Name
  ,                                       !- Transmittance Schedule Name
  ,                                       !- Number of Vertices
  -54.4266164866234, 17.6587440451862, 12, !- X,Y,Z Vertex 1 {m}
  -54.4266164866234, 17.6587440451862, 0, !- X,Y,Z Vertex 2 {m}
  -54.0077793454588, 40.6481619460203, 0, !- X,Y,Z Vertex 3 {m}
  -54.0077793454588, 40.6481619460203, 12; !- X,Y,Z Vertex 4 {m}

Shading:Building:Detailed,
  Shading Surface 46,                     !- Name
  ,                                       !- Transmittance Schedule Name
  ,                                       !- Number of Vertices
  -54.0077793454588, 40.6481619460203, 12, !- X,Y,Z Vertex 1 {m}
  -54.0077793454588, 40.6481619460203, 0, !- X,Y,Z Vertex 2 {m}
  -62.1298785459123, 40.7592868557866, 0, !- X,Y,Z Vertex 3 {m}
  -62.1298785459123, 40.7592868557866, 12; !- X,Y,Z Vertex 4 {m}

Shading:Building:Detailed,
  Shading Surface 47,                     !- Name
  ,                                       !- Transmittance Schedule Name
  ,                                       !- Number of Vertices
  -62.1298785459123, 40.7592868557866, 12, !- X,Y,Z Vertex 1 {m}
  -62.4650081198944, 17.7698686990849, 12, !- X,Y,Z Vertex 2 {m}
  -54.4266164866234, 17.6587440451862, 12, !- X,Y,Z Vertex 3 {m}
  -54.0077793454588, 40.6481619460203, 12; !- X,Y,Z Vertex 4 {m}

Shading:Building:Detailed,
  Shading Surface 48,                     !- Name
  ,                                       !- Transmittance Schedule Name
  ,                                       !- Number of Vertices
  -54.0077793454588, 40.6481619460203, 0, !- X,Y,Z Vertex 1 {m}
  -54.4266164866234, 17.6587440451862, 0, !- X,Y,Z Vertex 2 {m}
  -62.4650081198944, 17.7698686990849, 0, !- X,Y,Z Vertex 3 {m}
  -62.1298785459123, 40.7592868557866, 0; !- X,Y,Z Vertex 4 {m}

Shading:Building:Detailed,
  Shading Surface 49,                     !- Name
  ,                                       !- Transmittance Schedule Name
  ,                                       !- Number of Vertices
  -26.0414080078922, -84.2944876636459, 12, !- X,Y,Z Vertex 1 {m}
  -26.0414080078922, -84.2944876636459, 0, !- X,Y,Z Vertex 2 {m}
  -26.8788217384772, -103.063621832286, 0, !- X,Y,Z Vertex 3 {m}
  -26.8788217384772, -103.063621832286, 12; !- X,Y,Z Vertex 4 {m}

Shading:Building:Detailed,
  Shading Surface 50,                     !- Name
  ,                                       !- Transmittance Schedule Name
  ,                                       !- Number of Vertices
  -20.2637065725685, -75.0765272369086, 12, !- X,Y,Z Vertex 1 {m}
  -20.6824050631264, -84.5166248636135, 12, !- X,Y,Z Vertex 2 {m}
  -26.0414080078922, -84.2944876636459, 12, !- X,Y,Z Vertex 3 {m}
  -26.8788217384772, -103.063621832286, 12, !- X,Y,Z Vertex 4 {m}
  -23.278232265997, -103.174694240412, 12, !- X,Y,Z Vertex 5 {m}
  -24.2831174437966, -123.942907222303, 12, !- X,Y,Z Vertex 6 {m}
  -12.3927643320787, -124.4982371186, 12, !- X,Y,Z Vertex 7 {m}
  -11.7228635018996, -111.059980731535, 12, !- X,Y,Z Vertex 8 {m}
  7.95480120595063, -111.948465676079, 12, !- X,Y,Z Vertex 9 {m}
  8.54092944183198, -99.1765671440208, 12, !- X,Y,Z Vertex 10 {m}
  -13.6487385179422, -98.2880794849983, 12, !- X,Y,Z Vertex 11 {m}
  -12.6438836066693, -75.4097244495975, 12; !- X,Y,Z Vertex 12 {m}

Shading:Building:Detailed,
  Shading Surface 51,                     !- Name
  ,                                       !- Transmittance Schedule Name
  ,                                       !- Number of Vertices
  -26.8788217384772, -103.063621832286, 12, !- X,Y,Z Vertex 1 {m}
  -26.8788217384772, -103.063621832286, 0, !- X,Y,Z Vertex 2 {m}
  -23.278232265997, -103.174694240412, 0, !- X,Y,Z Vertex 3 {m}
  -23.278232265997, -103.174694240412, 12; !- X,Y,Z Vertex 4 {m}

Shading:Building:Detailed,
  Shading Surface 52,                     !- Name
  ,                                       !- Transmittance Schedule Name
  ,                                       !- Number of Vertices
  -20.2637065725685, -75.0765272369086, 12, !- X,Y,Z Vertex 1 {m}
  -20.2637065725685, -75.0765272369086, 0, !- X,Y,Z Vertex 2 {m}
  -20.6824050631264, -84.5166248636135, 0, !- X,Y,Z Vertex 3 {m}
  -20.6824050631264, -84.5166248636135, 12; !- X,Y,Z Vertex 4 {m}

Shading:Building:Detailed,
  Shading Surface 53,                     !- Name
  ,                                       !- Transmittance Schedule Name
  ,                                       !- Number of Vertices
  -24.2831174437966, -123.942907222303, 12, !- X,Y,Z Vertex 1 {m}
  -24.2831174437966, -123.942907222303, 0, !- X,Y,Z Vertex 2 {m}
  -12.3927643320787, -124.4982371186, 0,  !- X,Y,Z Vertex 3 {m}
  -12.3927643320787, -124.4982371186, 12; !- X,Y,Z Vertex 4 {m}

Shading:Building:Detailed,
  Shading Surface 54,                     !- Name
  ,                                       !- Transmittance Schedule Name
  ,                                       !- Number of Vertices
  -23.278232265997, -103.174694240412, 12, !- X,Y,Z Vertex 1 {m}
  -23.278232265997, -103.174694240412, 0, !- X,Y,Z Vertex 2 {m}
  -24.2831174437966, -123.942907222303, 0, !- X,Y,Z Vertex 3 {m}
  -24.2831174437966, -123.942907222303, 12; !- X,Y,Z Vertex 4 {m}

Shading:Building:Detailed,
  Shading Surface 55,                     !- Name
  ,                                       !- Transmittance Schedule Name
  ,                                       !- Number of Vertices
  -12.3927643320787, -124.4982371186, 12, !- X,Y,Z Vertex 1 {m}
  -12.3927643320787, -124.4982371186, 0,  !- X,Y,Z Vertex 2 {m}
  -11.7228635018996, -111.059980731535, 0, !- X,Y,Z Vertex 3 {m}
  -11.7228635018996, -111.059980731535, 12; !- X,Y,Z Vertex 4 {m}

Shading:Building:Detailed,
  Shading Surface 56,                     !- Name
  ,                                       !- Transmittance Schedule Name
  ,                                       !- Number of Vertices
  -12.6438836066693, -75.4097244495975, 12, !- X,Y,Z Vertex 1 {m}
  -12.6438836066693, -75.4097244495975, 0, !- X,Y,Z Vertex 2 {m}
  -20.2637065725685, -75.0765272369086, 0, !- X,Y,Z Vertex 3 {m}
  -20.2637065725685, -75.0765272369086, 12; !- X,Y,Z Vertex 4 {m}

Shading:Building:Detailed,
  Shading Surface 57,                     !- Name
  ,                                       !- Transmittance Schedule Name
  ,                                       !- Number of Vertices
  -20.6824050631264, -84.5166248636135, 12, !- X,Y,Z Vertex 1 {m}
  -20.6824050631264, -84.5166248636135, 0, !- X,Y,Z Vertex 2 {m}
  -26.0414080078922, -84.2944876636459, 0, !- X,Y,Z Vertex 3 {m}
  -26.0414080078922, -84.2944876636459, 12; !- X,Y,Z Vertex 4 {m}

Shading:Building:Detailed,
  Shading Surface 58,                     !- Name
  ,                                       !- Transmittance Schedule Name
  ,                                       !- Number of Vertices
  -12.6438836066693, -75.4097244495975, 0, !- X,Y,Z Vertex 1 {m}
  -13.6487385179422, -98.2880794849983, 0, !- X,Y,Z Vertex 2 {m}
  8.54092944183198, -99.1765671440208, 0, !- X,Y,Z Vertex 3 {m}
  7.95480120595063, -111.948465676079, 0, !- X,Y,Z Vertex 4 {m}
  -11.7228635018996, -111.059980731535, 0, !- X,Y,Z Vertex 5 {m}
  -12.3927643320787, -124.4982371186, 0,  !- X,Y,Z Vertex 6 {m}
  -24.2831174437966, -123.942907222303, 0, !- X,Y,Z Vertex 7 {m}
  -23.278232265997, -103.174694240412, 0, !- X,Y,Z Vertex 8 {m}
  -26.8788217384772, -103.063621832286, 0, !- X,Y,Z Vertex 9 {m}
  -26.0414080078922, -84.2944876636459, 0, !- X,Y,Z Vertex 10 {m}
  -20.6824050631264, -84.5166248636135, 0, !- X,Y,Z Vertex 11 {m}
  -20.2637065725685, -75.0765272369086, 0; !- X,Y,Z Vertex 12 {m}

Shading:Building:Detailed,
  Shading Surface 59,                     !- Name
  ,                                       !- Transmittance Schedule Name
  ,                                       !- Number of Vertices
  -13.6487385179422, -98.2880794849983, 12, !- X,Y,Z Vertex 1 {m}
  -13.6487385179422, -98.2880794849983, 0, !- X,Y,Z Vertex 2 {m}
  -12.6438836066693, -75.4097244495975, 0, !- X,Y,Z Vertex 3 {m}
  -12.6438836066693, -75.4097244495975, 12; !- X,Y,Z Vertex 4 {m}

Shading:Building:Detailed,
  Shading Surface 60,                     !- Name
  ,                                       !- Transmittance Schedule Name