    ConvergenceLimits,
      0,                       !- Minimum System Timestep {minutes}
      25;                      !- Maximum HVAC Iterations
    
Version,
  22.2;                                   !- Version Identifier

Timestep,
  1;                                      !- Number of Timesteps per Hour

LifeCycleCost:Parameters,
  Life Cycle Cost Parameters,             !- Name
  EndOfYear,                              !- Discounting Convention
  ConstantDollar,                         !- Inflation Approach
  0.03,                                   !- Real Discount Rate
  ,                                       !- Nominal Discount Rate
  ,                                       !- Inflation
  ,                                       !- Base Date Month
  2011,                                   !- Base Date Year
  ,                                       !- Service Date Month
  2011,                                   !- Service Date Year
  25,                                     !- Length of Study Period in Years
  ,                                       !- Tax rate
  None;                                   !- Depreciation Method

LifeCycleCost:UsePriceEscalation,
  U.S. Avg  Commercial-Electricity,       !- Name
  Electricity,                            !- Resource
  2011,                                   !- Escalation Start Year
  January,                                !- Escalation Start Month
  0.9838,                                 !- Year Escalation 1
  0.9730,                                 !- Year Escalation 2
  0.9632,                                 !- Year Escalation 3
  0.9611,                                 !- Year Escalation 4
  0.9571,                                 !- Year Escalation 5
  0.9553,                                 !- Year Escalation 6
  0.9539,                                 !- Year Escalation 7
  0.9521,                                 !- Year Escalation 8
  0.9546,                                 !- Year Escalation 9
  0.9550,                                 !- Year Escalation 10
  0.9553,                                 !- Year Escalation 11
  0.9564,                                 !- Year Escalation 12
  0.9575,                                 !- Year Escalation 13
  0.9596,                                 !- Year Escalation 14
  0.9618,                                 !- Year Escalation 15
  0.9614,                                 !- Year Escalation 16
  0.9618,                                 !- Year Escalation 17
  0.9618,                                 !- Year Escalation 18
  0.9593,                                 !- Year Escalation 19
  0.9589,                                 !- Year Escalation 20
  0.9607,                                 !- Year Escalation 21
  0.9625,                                 !- Year Escalation 22
  0.9650,                                 !- Year Escalation 23
  0.9708,                                 !- Year Escalation 24
  0.9751,                                 !- Year Escalation 25
  0.9762,                                 !- Year Escalation 26
  0.9766,                                 !- Year Escalation 27
  0.9766,                                 !- Year Escalation 28
  0.9769,                                 !- Year Escalation 29
  0.9773;                                 !- Year Escalation 30

LifeCycleCost:UsePriceEscalation,
  U.S. Avg  Commercial-Distillate Oil,    !- Name
  FuelOilNo1,                             !- Resource
  2011,                                   !- Escalation Start Year
  January,                                !- Escalation Start Month
  0.9714,                                 !- Year Escalation 1
  0.9730,                                 !- Year Escalation 2
  0.9942,                                 !- Year Escalation 3
  1.0164,                                 !- Year Escalation 4
  1.0541,                                 !- Year Escalation 5
  1.0928,                                 !- Year Escalation 6
  1.1267,                                 !- Year Escalation 7
  1.1580,                                 !- Year Escalation 8
  1.1792,                                 !- Year Escalation 9
  1.1967,                                 !- Year Escalation 10
  1.2200,                                 !- Year Escalation 11
  1.2333,                                 !- Year Escalation 12
  1.2566,                                 !- Year Escalation 13
  1.2709,                                 !- Year Escalation 14
  1.2826,                                 !- Year Escalation 15
  1.2985,                                 !- Year Escalation 16
  1.3102,                                 !- Year Escalation 17
  1.3250,                                 !- Year Escalation 18
  1.3261,                                 !- Year Escalation 19
  1.3282,                                 !- Year Escalation 20
  1.3324,                                 !- Year Escalation 21
  1.3356,                                 !- Year Escalation 22
  1.3431,                                 !- Year Escalation 23
  1.3510,                                 !- Year Escalation 24
  1.3568,                                 !- Year Escalation 25
  1.3606,                                 !- Year Escalation 26
  1.3637,                                 !- Year Escalation 27
  1.3674,                                 !- Year Escalation 28
  1.3706,                                 !- Year Escalation 29
  1.3743;                                 !- Year Escalation 30

LifeCycleCost:UsePriceEscalation,
  U.S. Avg  Commercial-Residual Oil,      !- Name
  FuelOilNo2,                             !- Resource
  2011,                                   !- Escalation Start Year
  January,                                !- Escalation Start Month
  0.8469,                                 !- Year Escalation 1
  0.8257,                                 !- Year Escalation 2
  0.8681,                                 !- Year Escalation 3
  0.8988,                                 !- Year Escalation 4
  0.9289,                                 !- Year Escalation 5
  0.9604,                                 !- Year Escalation 6
  0.9897,                                 !- Year Escalation 7
  1.0075,                                 !- Year Escalation 8
  1.0314,                                 !- Year Escalation 9
  1.0554,                                 !- Year Escalation 10
  1.0861,                                 !- Year Escalation 11
  1.1278,                                 !- Year Escalation 12
  1.1497,                                 !- Year Escalation 13
  1.1620,                                 !- Year Escalation 14
  1.1743,                                 !- Year Escalation 15
  1.1852,                                 !- Year Escalation 16
  1.1948,                                 !- Year Escalation 17
  1.2037,                                 !- Year Escalation 18
  1.2071,                                 !- Year Escalation 19
  1.2119,                                 !- Year Escalation 20
  1.2139,                                 !- Year Escalation 21
  1.2194,                                 !- Year Escalation 22
  1.2276,                                 !- Year Escalation 23
  1.2365,                                 !- Year Escalation 24
  1.2420,                                 !- Year Escalation 25
  1.2461,                                 !- Year Escalation 26
  1.2509,                                 !- Year Escalation 27
  1.2550,                                 !- Year Escalation 28
  1.2591,                                 !- Year Escalation 29
  1.2638;                                 !- Year Escalation 30

LifeCycleCost:UsePriceEscalation,
  U.S. Avg  Commercial-Natural gas,       !- Name
  NaturalGas,                             !- Resource
  2011,                                   !- Escalation Start Year
  January,                                !- Escalation Start Month
  0.9823,                                 !- Year Escalation 1
  0.9557,                                 !- Year Escalation 2
  0.9279,                                 !- Year Escalation 3
  0.9257,                                 !- Year Escalation 4
  0.9346,                                 !- Year Escalation 5
  0.9412,                                 !- Year Escalation 6
  0.9512,                                 !- Year Escalation 7
  0.9645,                                 !- Year Escalation 8
  0.9856,                                 !- Year Escalation 9
  1.0067,                                 !- Year Escalation 10
  1.0222,                                 !- Year Escalation 11
  1.0410,                                 !- Year Escalation 12
  1.0610,                                 !- Year Escalation 13
  1.0787,                                 !- Year Escalation 14
  1.0942,                                 !- Year Escalation 15
  1.1098,                                 !- Year Escalation 16
  1.1220,                                 !- Year Escalation 17
  1.1308,                                 !- Year Escalation 18
  1.1386,                                 !- Year Escalation 19
  1.1486,                                 !- Year Escalation 20
  1.1619,                                 !- Year Escalation 21
  1.1763,                                 !- Year Escalation 22
  1.1918,                                 !- Year Escalation 23
  1.2118,                                 !- Year Escalation 24
  1.2284,                                 !- Year Escalation 25
  1.2439,                                 !- Year Escalation 26
  1.2605,                                 !- Year Escalation 27
  1.2772,                                 !- Year Escalation 28
  1.2938,                                 !- Year Escalation 29
  1.3115;                                 !- Year Escalation 30

LifeCycleCost:UsePriceEscalation,
  U.S. Avg  Commercial-Coal,              !- Name
  Coal,                                   !- Resource
  2011,                                   !- Escalation Start Year
  January,                                !- Escalation Start Month
  0.9970,                                 !- Year Escalation 1
  1.0089,                                 !- Year Escalation 2
  1.0089,                                 !- Year Escalation 3
  0.9941,                                 !- Year Escalation 4
  0.9941,                                 !- Year Escalation 5
  1.0000,                                 !- Year Escalation 6
  1.0030,                                 !- Year Escalation 7
  1.0059,                                 !- Year Escalation 8
  1.0089,                                 !- Year Escalation 9
  1.0119,                                 !- Year Escalation 10
  1.0148,                                 !- Year Escalation 11
  1.0178,                                 !- Year Escalation 12
  1.0208,                                 !- Year Escalation 13
  1.0267,                                 !- Year Escalation 14
  1.0297,                                 !- Year Escalation 15
  1.0356,                                 !- Year Escalation 16
  1.0415,                                 !- Year Escalation 17
  1.0534,                                 !- Year Escalation 18
  1.0564,                                 !- Year Escalation 19
  1.0593,                                 !- Year Escalation 20
  1.0653,                                 !- Year Escalation 21
  1.0712,                                 !- Year Escalation 22
  1.0742,                                 !- Year Escalation 23
  1.0801,                                 !- Year Escalation 24
  1.0831,                                 !- Year Escalation 25
  1.0831,                                 !- Year Escalation 26
  1.0861,                                 !- Year Escalation 27
  1.0890,                                 !- Year Escalation 28
  1.0920,                                 !- Year Escalation 29
  1.0950;                                 !- Year Escalation 30

Building,
  bld_9,                                  !- Name
  ,                                       !- North Axis {deg}
  City,                                   !- Terrain
  ,                                       !- Loads Convergence Tolerance Value {W}
  ,                                       !- Temperature Convergence Tolerance Value {deltaC}
  ,                                       !- Solar Distribution
  ,                                       !- Maximum Number of Warmup Days
  ;                                       !- Minimum Number of Warmup Days

Shading:Building:Detailed,
  Shading Surface 1,                      !- Name
  ,                                       !- Transmittance Schedule Name
  ,                                       !- Number of Vertices
  -23.1940633866739, 13.1051175422281, 12, !- X,Y,Z Vertex 1 {m}
  -23.1940633866739, 13.1051175422281, 0, !- X,Y,Z Vertex 2 {m}
  -22.6078734267746, 31.8742569182098, 0, !- X,Y,Z Vertex 3 {m}
  -22.6078734267746, 31.8742569182098, 12; !- X,Y,Z Vertex 4 {m}

Shading:Building:Detailed,
  Shading Surface 2,                      !- Name
  ,                                       !- Transmittance Schedule Name
  ,                                       !- Number of Vertices
  -22.6078734267746, 31.8742569182098, 0, !- X,Y,Z Vertex 1 {m}
  -23.1940633866739, 13.1051175422281, 0, !- X,Y,Z Vertex 2 {m}
  -31.8185697377641, 13.3272701984671, 0, !- X,Y,Z Vertex 3 {m}
  -31.2323575210498, 32.0964088850771, 0; !- X,Y,Z Vertex 4 {m}

Shading:Building:Detailed,
  Shading Surface 3,                      !- Name
  ,                                       !- Transmittance Schedule Name
  ,                                       !- Number of Vertices
  -31.8185697377641, 13.3272701984671, 12, !- X,Y,Z Vertex 1 {m}
  -31.8185697377641, 13.3272701984671, 0, !- X,Y,Z Vertex 2 {m}
  -23.1940633866739, 13.1051175422281, 0, !- X,Y,Z Vertex 3 {m}
  -23.1940633866739, 13.1051175422281, 12; !- X,Y,Z Vertex 4 {m}

Shading:Building:Detailed,
  Shading Surface 4,                      !- Name
  ,                                       !- Transmittance Schedule Name
  ,                                       !- Number of Vertices
  -31.2323575210498, 32.0964088850771, 12, !- X,Y,Z Vertex 1 {m}
  -31.8185697377641, 13.3272701984671, 12, !- X,Y,Z Vertex 2 {m}
  -23.1940633866739, 13.1051175422281, 12, !- X,Y,Z Vertex 3 {m}
  -22.6078734267746, 31.8742569182098, 12; !- X,Y,Z Vertex 4 {m}

Shading:Building:Detailed,
  Shading Surface 5,                      !- Name
  ,                                       !- Transmittance Schedule Name
  ,                                       !- Number of Vertices
  -22.6078734267746, 31.8742569182098, 12, !- X,Y,Z Vertex 1 {m}
  -22.6078734267746, 31.8742569182098, 0, !- X,Y,Z Vertex 2 {m}
  -31.2323575210498, 32.0964088850771, 0, !- X,Y,Z Vertex 3 {m}
  -31.2323575210498, 32.0964088850771, 12; !- X,Y,Z Vertex 4 {m}

Shading:Building:Detailed,
  Shading Surface 6,                      !- Name
  ,                                       !- Transmittance Schedule Name
  ,                                       !- Number of Vertices
  -31.2323575210498, 32.0964088850771, 12, !- X,Y,Z Vertex 1 {m}
  -31.2323575210498, 32.0964088850771, 0, !- X,Y,Z Vertex 2 {m}
  -31.8185697377641, 13.3272701984671, 0, !- X,Y,Z Vertex 3 {m}
  -31.8185697377641, 13.3272701984671, 12; !- X,Y,Z Vertex 4 {m}

Shading:Building:Detailed,
  Shading Surface 31,                     !- Name
  ,                                       !- Transmittance Schedule Name
  ,                                       !- Number of Vertices
  158.506821277363, 8.55334901941742, 12, !- X,Y,Z Vertex 1 {m}
  158.506821277363, 8.55334901941742, 0,  !- X,Y,Z Vertex 2 {m}
  159.092780576854, 16.4386222157279, 0,  !- X,Y,Z Vertex 3 {m}
  159.092780576854, 16.4386222157279, 12; !- X,Y,Z Vertex 4 {m}

Shading:Building:Detailed,
  Shading Surface 32,                     !- Name
  ,                                       !- Transmittance Schedule Name
  ,                                       !- Number of Vertices
  161.940112385104, -1.88621565149256, 12, !- X,Y,Z Vertex 1 {m}
  161.940112385104, -1.88621565149256, 0, !- X,Y,Z Vertex 2 {m}
  162.693485398512, 8.22026153194007, 0,  !- X,Y,Z Vertex 3 {m}
  162.693485398512, 8.22026153194007, 12; !- X,Y,Z Vertex 4 {m}

Shading:Building:Detailed,
  Shading Surface 33,                     !- Name
  ,                                       !- Transmittance Schedule Name
  ,                                       !- Number of Vertices
  151.892105711916, -1.10901259972858, 12, !- X,Y,Z Vertex 1 {m}
  151.892105711916, -1.10901259972858, 0, !- X,Y,Z Vertex 2 {m}
  161.940112385104, -1.88621565149256, 0, !- X,Y,Z Vertex 3 {m}
  161.940112385104, -1.88621565149256, 12; !- X,Y,Z Vertex 4 {m}

Shading:Building:Detailed,
  Shading Surface 34,                     !- Name
  ,                                       !- Transmittance Schedule Name
  ,                                       !- Number of Vertices
  136.149893671274, 18.2151162462172, 12, !- X,Y,Z Vertex 1 {m}
  136.149893671274, 18.2151162462172, 0,  !- X,Y,Z Vertex 2 {m}
  135.229045370036, 6.6648584776149, 0,   !- X,Y,Z Vertex 3 {m}
  135.229045370036, 6.6648584776149, 12;  !- X,Y,Z Vertex 4 {m}

Shading:Building:Detailed,
  Shading Surface 35,                     !- Name
  ,                                       !- Transmittance Schedule Name
  ,                                       !- Number of Vertices
  152.394370093366, 5.33247813037668, 12, !- X,Y,Z Vertex 1 {m}
  152.394370093366, 5.33247813037668, 0,  !- X,Y,Z Vertex 2 {m}
  151.892105711916, -1.10901259972858, 0, !- X,Y,Z Vertex 3 {m}
  151.892105711916, -1.10901259972858, 12; !- X,Y,Z Vertex 4 {m}

Shading:Building:Detailed,
  Shading Surface 36,                     !- Name
  ,                                       !- Transmittance Schedule Name
  ,                                       !- Number of Vertices
  159.092780576854, 16.4386222157279, 12, !- X,Y,Z Vertex 1 {m}
  159.092780576854, 16.4386222157279, 0,  !- X,Y,Z Vertex 2 {m}
  136.149893671274, 18.2151162462172, 0,  !- X,Y,Z Vertex 3 {m}
  136.149893671274, 18.2151162462172, 12; !- X,Y,Z Vertex 4 {m}

Shading:Building:Detailed,
  Shading Surface 37,                     !- Name
  ,                                       !- Transmittance Schedule Name
  ,                                       !- Number of Vertices
  162.693485398512, 8.22026153194007, 12, !- X,Y,Z Vertex 1 {m}
  162.693485398512, 8.22026153194007, 0,  !- X,Y,Z Vertex 2 {m}
  158.506821277363, 8.55334901941742, 0,  !- X,Y,Z Vertex 3 {m}
  158.506821277363, 8.55334901941742, 12; !- X,Y,Z Vertex 4 {m}

Shading:Building:Detailed,
  Shading Surface 38,                     !- Name
  ,                                       !- Transmittance Schedule Name
  ,                                       !- Number of Vertices
  159.092780576854, 16.4386222157279, 0,  !- X,Y,Z Vertex 1 {m}
  158.506821277363, 8.55334901941742, 0,  !- X,Y,Z Vertex 2 {m}
  162.693485398512, 8.22026153194007, 0,  !- X,Y,Z Vertex 3 {m}
  161.940112385104, -1.88621565149256, 0, !- X,Y,Z Vertex 4 {m}
  151.892105711916, -1.10901259972858, 0, !- X,Y,Z Vertex 5 {m}
  152.394370093366, 5.33247813037668, 0,  !- X,Y,Z Vertex 6 {m}
  135.229045370036, 6.6648584776149, 0,   !- X,Y,Z Vertex 7 {m}
  136.149893671274, 18.2151162462172, 0;  !- X,Y,Z Vertex 8 {m}

Shading:Building:Detailed,
  Shading Surface 39,                     !- Name
  ,                                       !- Transmittance Schedule Name
  ,                                       !- Number of Vertices
  135.229045370036, 6.6648584776149, 12,  !- X,Y,Z Vertex 1 {m}
  135.229045370036, 6.6648584776149, 0,   !- X,Y,Z Vertex 2 {m}
  152.394370093366, 5.33247813037668, 0,  !- X,Y,Z Vertex 3 {m}
  152.394370093366, 5.33247813037668, 12; !- X,Y,Z Vertex 4 {m}

Shading:Building:Detailed,
  Shading Surface 40,                     !- Name
  ,                                       !- Transmittance Schedule Name
  ,                                       !- Number of Vertices
  136.149893671274, 18.2151162462172, 12, !- X,Y,Z Vertex 1 {m}
  135.229045370036, 6.6648584776149, 12,  !- X,Y,Z Vertex 2 {m}
  152.394370093366, 5.33247813037668, 12, !- X,Y,Z Vertex 3 {m}
  151.892105711916, -1.10901259972858, 12, !- X,Y,Z Vertex 4 {m}
  161.940112385104, -1.88621565149256, 12, !- X,Y,Z Vertex 5 {m}
  162.693485398512, 8.22026153194007, 12, !- X,Y,Z Vertex 6 {m}
  158.506821277363, 8.55334901941742, 12, !- X,Y,Z Vertex 7 {m}
  159.092780576854, 16.4386222157279, 12; !- X,Y,Z Vertex 8 {m}

Shading:Building:Detailed,
  Shading Surface 41,                     !- Name
  ,                                       !- Transmittance Schedule Name
  ,                                       !- Number of Vertices
  169.141174774495, -1.99711161117548, 12, !- X,Y,Z Vertex 1 {m}
  169.141174774495, -1.99711161117548, 0, !- X,Y,Z Vertex 2 {m}
  177.179569942792, -2.10798006830923, 0, !- X,Y,Z Vertex 3 {m}
  177.179569942792, -2.10798006830923, 12; !- X,Y,Z Vertex 4 {m}

Shading:Building:Detailed,
  Shading Surface 42,                     !- Name
  ,                                       !- Transmittance Schedule Name
  ,                                       !- Number of Vertices
  169.475571635892, 20.9923172151952, 12, !- X,Y,Z Vertex 1 {m}
  169.475571635892, 20.9923172151952, 0,  !- X,Y,Z Vertex 2 {m}
  169.141174774495, -1.99711161117548, 0, !- X,Y,Z Vertex 3 {m}
  169.141174774495, -1.99711161117548, 12; !- X,Y,Z Vertex 4 {m}

Shading:Building:Detailed,
  Shading Surface 43,                     !- Name
  ,                                       !- Transmittance Schedule Name
  ,                                       !- Number of Vertices
  177.597674371308, 20.8814511700914, 12, !- X,Y,Z Vertex 1 {m}
  177.597674371308, 20.8814511700914, 0,  !- X,Y,Z Vertex 2 {m}
  169.475571635892, 20.9923172151952, 0,  !- X,Y,Z Vertex 3 {m}
  169.475571635892, 20.9923172151952, 12; !- X,Y,Z Vertex 4 {m}

Shading:Building:Detailed,
  Shading Surface 44,                     !- Name
  ,                                       !- Transmittance Schedule Name
  ,                                       !- Number of Vertices
  169.475571635892, 20.9923172151952, 12, !- X,Y,Z Vertex 1 {m}
  169.141174774495, -1.99711161117548, 12, !- X,Y,Z Vertex 2 {m}
  177.179569942792, -2.10798006830923, 12, !- X,Y,Z Vertex 3 {m}
  177.597674371308, 20.8814511700914, 12; !- X,Y,Z Vertex 4 {m}

Shading:Building:Detailed,
  Shading Surface 45,                     !- Name
  ,                                       !- Transmittance Schedule Name
  ,                                       !- Number of Vertices
  177.597674371308, 20.8814511700914, 0,  !- X,Y,Z Vertex 1 {m}
  177.179569942792, -2.10798006830923, 0, !- X,Y,Z Vertex 2 {m}
  169.141174774495, -1.99711161117548, 0, !- X,Y,Z Vertex 3 {m}
  169.475571635892, 20.9923172151952, 0;  !- X,Y,Z Vertex 4 {m}

Shading:Building:Detailed,
  Shading Surface 46,                     !- Name
  ,                                       !- Transmittance Schedule Name
  ,                                       !- Number of Vertices
  177.179569942792, -2.10798006830923, 12, !- X,Y,Z Vertex 1 {m}
  177.179569942792, -2.10798006830923, 0, !- X,Y,Z Vertex 2 {m}
  177.597674371308, 20.8814511700914, 0,  !- X,Y,Z Vertex 3 {m}
  177.597674371308, 20.8814511700914, 12; !- X,Y,Z Vertex 4 {m}

Shading:Building:Detailed,
  Shading Surface 47,                     !- Name
  ,                                       !- Transmittance Schedule Name
  ,                                       !- Number of Vertices
  204.731212245206, -122.829467887785, 12, !- X,Y,Z Vertex 1 {m}
  204.731212245206, -122.829467887785, 0, !- X,Y,Z Vertex 2 {m}
  208.331805253988, -122.940425539106, 0, !- X,Y,Z Vertex 3 {m}
  208.331805253988, -122.940425539106, 12; !- X,Y,Z Vertex 4 {m}

Shading:Building:Detailed,
  Shading Surface 48,                     !- Name
  ,                                       !- Transmittance Schedule Name
  ,                                       !- Number of Vertices
  239.56511831925, -131.713201521103, 12, !- X,Y,Z Vertex 1 {m}
  239.56511831925, -131.713201521103, 0,  !- X,Y,Z Vertex 2 {m}
  240.150839501852, -118.941284315365, 0, !- X,Y,Z Vertex 3 {m}
  240.150839501852, -118.941284315365, 12; !- X,Y,Z Vertex 4 {m}

Shading:Building:Detailed,
  Shading Surface 49,                     !- Name
  ,                                       !- Transmittance Schedule Name
  ,                                       !- Number of Vertices
  210.927037802472, -104.282273439417, 12, !- X,Y,Z Vertex 1 {m}
  210.927037802472, -104.282273439417, 0, !- X,Y,Z Vertex 2 {m}
  205.568027783489, -104.060307039866, 0, !- X,Y,Z Vertex 3 {m}
  205.568027783489, -104.060307039866, 12; !- X,Y,Z Vertex 4 {m}

Shading:Building:Detailed,
  Shading Surface 50,                     !- Name
  ,                                       !- Transmittance Schedule Name
  ,                                       !- Number of Vertices
  205.568027783489, -104.060307039866, 12, !- X,Y,Z Vertex 1 {m}
  205.568027783489, -104.060307039866, 0, !- X,Y,Z Vertex 2 {m}
  204.731212245206, -122.829467887785, 0, !- X,Y,Z Vertex 3 {m}
  204.731212245206, -122.829467887785, 12; !- X,Y,Z Vertex 4 {m}

Shading:Building:Detailed,
  Shading Surface 51,                     !- Name
  ,                                       !- Transmittance Schedule Name
  ,                                       !- Number of Vertices
  219.217952776937, -144.263621467266, 12, !- X,Y,Z Vertex 1 {m}
  219.217952776937, -144.263621467266, 0, !- X,Y,Z Vertex 2 {m}
  219.887425317288, -130.825343737012, 0, !- X,Y,Z Vertex 3 {m}
  219.887425317288, -130.825343737012, 12; !- X,Y,Z Vertex 4 {m}

Shading:Building:Detailed,
  Shading Surface 52,                     !- Name
  ,                                       !- Transmittance Schedule Name
  ,                                       !- Number of Vertices
  218.965269003405, -95.1751168294158, 12, !- X,Y,Z Vertex 1 {m}
  218.965269003405, -95.1751168294158, 0, !- X,Y,Z Vertex 2 {m}
  211.345435426303, -94.8421624733054, 0, !- X,Y,Z Vertex 3 {m}
  211.345435426303, -94.8421624733054, 12; !- X,Y,Z Vertex 4 {m}

Shading:Building:Detailed,
  Shading Surface 53,                     !- Name
  ,                                       !- Transmittance Schedule Name
  ,                                       !- Number of Vertices
  218.965269003405, -95.1751168294158, 0, !- X,Y,Z Vertex 1 {m}
  217.96114325063, -118.053503878511, 0,  !- X,Y,Z Vertex 2 {m}
  240.150839501852, -118.941284315365, 0, !- X,Y,Z Vertex 3 {m}
  239.56511831925, -131.713201521103, 0,  !- X,Y,Z Vertex 4 {m}
  219.887425317288, -130.825343737012, 0, !- X,Y,Z Vertex 5 {m}
  219.217952776937, -144.263621467266, 0, !- X,Y,Z Vertex 6 {m}
  207.327581979003, -143.70867053655, 0,  !- X,Y,Z Vertex 7 {m}
  208.331805253988, -122.940425539106, 0, !- X,Y,Z Vertex 8 {m}
  204.731212245206, -122.829467887785, 0, !- X,Y,Z Vertex 9 {m}
  205.568027783489, -104.060307039866, 0, !- X,Y,Z Vertex 10 {m}
  210.927037802472, -104.282273439417, 0, !- X,Y,Z Vertex 11 {m}
  211.345435426303, -94.8421624733054, 0; !- X,Y,Z Vertex 12 {m}

Shading:Building:Detailed,
  Shading Surface 54,                     !- Name
  ,                                       !- Transmittance Schedule Name
  ,                                       !- Number of Vertices
  219.887425317288, -130.825343737012, 12, !- X,Y,Z Vertex 1 {m}
  219.887425317288, -130.825343737012, 0, !- X,Y,Z Vertex 2 {m}
  239.56511831925, -131.713201521103, 0,  !- X,Y,Z Vertex 3 {m}
  239.56511831925, -131.713201521103, 12; !- X,Y,Z Vertex 4 {m}

Shading:Building:Detailed,
  Shading Surface 55,                     !- Name
  ,                                       !- Transmittance Schedule Name
  ,                                       !- Number of Vertices
  207.327581979003, -143.70867053655, 12, !- X,Y,Z Vertex 1 {m}
  207.327581979003, -143.70867053655, 0,  !- X,Y,Z Vertex 2 {m}
  219.217952776937, -144.263621467266, 0, !- X,Y,Z Vertex 3 {m}
  219.217952776937, -144.263621467266, 12; !- X,Y,Z Vertex 4 {m}

Shading:Building:Detailed,
  Shading Surface 56,                     !- Name
  ,                                       !- Transmittance Schedule Name
  ,                                       !- Number of Vertices
  208.331805253988, -122.940425539106, 12, !- X,Y,Z Vertex 1 {m}
  208.331805253988, -122.940425539106, 0, !- X,Y,Z Vertex 2 {m}
  207.327581979003, -143.70867053655, 0,  !- X,Y,Z Vertex 3 {m}
  207.327581979003, -143.70867053655, 12; !- X,Y,Z Vertex 4 {m}

Shading:Building:Detailed,
  Shading Surface 57,                     !- Name
  ,                                       !- Transmittance Schedule Name
  ,                                       !- Number of Vertices
  240.150839501852, -118.941284315365, 12, !- X,Y,Z Vertex 1 {m}
  240.150839501852, -118.941284315365, 0, !- X,Y,Z Vertex 2 {m}
  217.96114325063, -118.053503878511, 0,  !- X,Y,Z Vertex 3 {m}
  217.96114325063, -118.053503878511, 12; !- X,Y,Z Vertex 4 {m}

Shading:Building:Detailed,
  Shading Surface 58,                     !- Name
  ,                                       !- Transmittance Schedule Name
  ,                                       !- Number of Vertices
  211.345435426303, -94.8421624733054, 12, !- X,Y,Z Vertex 1 {m}
  211.345435426303, -94.8421624733054, 0, !- X,Y,Z Vertex 2 {m}
  210.927037802472, -104.282273439417, 0, !- X,Y,Z Vertex 3 {m}
  210.927037802472, -104.282273439417, 12; !- X,Y,Z Vertex 4 {m}

Shading:Building:Detailed,
  Shading Surface 59,                     !- Name
  ,                                       !- Transmittance Schedule Name
  ,                                       !- Number of Vertices