
Version,
  22.2;                                   !- Version Identifier

Timestep,
  1;                                      !- Number of Timesteps per Hour

LifeCycleCost:Parameters,
  Life Cycle Cost Parameters,             !- Name
  EndOfYear,                              !- Discounting Convention
  ConstantDollar,                         !- Inflation Approach
  0.03,                                   !- Real Discount Rate
  ,                                       !- Nominal Discount Rate
  ,                                       !- Inflation
  ,                                       !- Base Date Month
  2011,                                   !- Base Date Year
  ,                                       !- Service Date Month
  2011,                                   !- Service Date Year
  25,                                     !- Length of Study Period in Years
  ,                                       !- Tax rate
  None;                                   !- Depreciation Method

LifeCycleCost:UsePriceEscalation,
  U.S. Avg  Commercial-Electricity,       !- Name
  Electricity,                            !- Resource
  2011,                                   !- Escalation Start Year
  January,                                !- Escalation Start Month
  0.9838,                                 !- Year Escalation 1
  0.9730,                                 !- Year Escalation 2
  0.9632,                                 !- Year Escalation 3
  0.9611,                                 !- Year Escalation 4
  0.9571,                                 !- Year Escalation 5
  0.9553,                                 !- Year Escalation 6
  0.9539,                                 !- Year Escalation 7
  0.9521,                                 !- Year Escalation 8
  0.9546,                                 !- Year Escalation 9
  0.9550,                                 !- Year Escalation 10
  0.9553,                                 !- Year Escalation 11
  0.9564,                                 !- Year Escalation 12
  0.9575,                                 !- Year Escalation 13
  0.9596,                                 !- Year Escalation 14
  0.9618,                                 !- Year Escalation 15
  0.9614,                                 !- Year Escalation 16
  0.9618,                                 !- Year Escalation 17
  0.9618,                                 !- Year Escalation 18
  0.9593,                                 !- Year Escalation 19
  0.9589,                                 !- Year Escalation 20
  0.9607,                                 !- Year Escalation 21
  0.9625,                                 !- Year Escalation 22
  0.9650,                                 !- Year Escalation 23
  0.9708,                                 !- Year Escalation 24
  0.9751,                                 !- Year Escalation 25
  0.9762,                                 !- Year Escalation 26
  0.9766,                                 !- Year Escalation 27
  0.9766,                                 !- Year Escalation 28
  0.9769,                                 !- Year Escalation 29
  0.9773;                                 !- Year Escalation 30

LifeCycleCost:UsePriceEscalation,
  U.S. Avg  Commercial-Distillate Oil,    !- Name
  FuelOilNo1,                             !- Resource
  2011,                                   !- Escalation Start Year
  January,                                !- Escalation Start Month
  0.9714,                                 !- Year Escalation 1
  0.9730,                                 !- Year Escalation 2
  0.9942,                                 !- Year Escalation 3
  1.0164,                                 !- Year Escalation 4
  1.0541,                                 !- Year Escalation 5
  1.0928,                                 !- Year Escalation 6
  1.1267,                                 !- Year Escalation 7
  1.1580,                                 !- Year Escalation 8
  1.1792,                                 !- Year Escalation 9
  1.1967,                                 !- Year Escalation 10
  1.2200,                                 !- Year Escalation 11
  1.2333,                                 !- Year Escalation 12
  1.2566,                                 !- Year Escalation 13
  1.2709,                                 !- Year Escalation 14
  1.2826,                                 !- Year Escalation 15
  1.2985,                                 !- Year Escalation 16
  1.3102,                                 !- Year Escalation 17
  1.3250,                                 !- Year Escalation 18
  1.3261,                                 !- Year Escalation 19
  1.3282,                                 !- Year Escalation 20
  1.3324,                                 !- Year Escalation 21
  1.3356,                                 !- Year Escalation 22
  1.3431,                                 !- Year Escalation 23
  1.3510,                                 !- Year Escalation 24
  1.3568,                                 !- Year Escalation 25
  1.3606,                                 !- Year Escalation 26
  1.3637,                                 !- Year Escalation 27
  1.3674,                                 !- Year Escalation 28
  1.3706,                                 !- Year Escalation 29
  1.3743;                                 !- Year Escalation 30

LifeCycleCost:UsePriceEscalation,
  U.S. Avg  Commercial-Residual Oil,      !- Name
  FuelOilNo2,                             !- Resource
  2011,                                   !- Escalation Start Year
  January,                                !- Escalation Start Month
  0.8469,                                 !- Year Escalation 1
  0.8257,                                 !- Year Escalation 2
  0.8681,                                 !- Year Escalation 3
  0.8988,                                 !- Year Escalation 4
  0.9289,                                 !- Year Escalation 5
  0.9604,                                 !- Year Escalation 6
  0.9897,                                 !- Year Escalation 7
  1.0075,                                 !- Year Escalation 8
  1.0314,                                 !- Year Escalation 9
  1.0554,                                 !- Year Escalation 10
  1.0861,                                 !- Year Escalation 11
  1.1278,                                 !- Year Escalation 12
  1.1497,                                 !- Year Escalation 13
  1.1620,                                 !- Year Escalation 14
  1.1743,                                 !- Year Escalation 15
  1.1852,                                 !- Year Escalation 16
  1.1948,                                 !- Year Escalation 17
  1.2037,                                 !- Year Escalation 18
  1.2071,                                 !- Year Escalation 19
  1.2119,                                 !- Year Escalation 20
  1.2139,                                 !- Year Escalation 21
  1.2194,                                 !- Year Escalation 22
  1.2276,                                 !- Year Escalation 23
  1.2365,                                 !- Year Escalation 24
  1.2420,                                 !- Year Escalation 25
  1.2461,                                 !- Year Escalation 26
  1.2509,                                 !- Year Escalation 27
  1.2550,                                 !- Year Escalation 28
  1.2591,                                 !- Year Escalation 29
  1.2638;                                 !- Year Escalation 30

LifeCycleCost:UsePriceEscalation,
  U.S. Avg  Commercial-Natural gas,       !- Name
  NaturalGas,                             !- Resource
  2011,                                   !- Escalation Start Year
  January,                                !- Escalation Start Month
  0.9823,                                 !- Year Escalation 1
  0.9557,                                 !- Year Escalation 2
  0.9279,                                 !- Year Escalation 3
  0.9257,                                 !- Year Escalation 4
  0.9346,                                 !- Year Escalation 5
  0.9412,                                 !- Year Escalation 6
  0.9512,                                 !- Year Escalation 7
  0.9645,                                 !- Year Escalation 8
  0.9856,                                 !- Year Escalation 9
  1.0067,                                 !- Year Escalation 10
  1.0222,                                 !- Year Escalation 11
  1.0410,                                 !- Year Escalation 12
  1.0610,                                 !- Year Escalation 13
  1.0787,                                 !- Year Escalation 14
  1.0942,                                 !- Year Escalation 15
  1.1098,                                 !- Year Escalation 16
  1.1220,                                 !- Year Escalation 17
  1.1308,                                 !- Year Escalation 18
  1.1386,                                 !- Year Escalation 19
  1.1486,                                 !- Year Escalation 20
  1.1619,                                 !- Year Escalation 21
  1.1763,                                 !- Year Escalation 22
  1.1918,                                 !- Year Escalation 23
  1.2118,                                 !- Year Escalation 24
  1.2284,                                 !- Year Escalation 25
  1.2439,                                 !- Year Escalation 26
  1.2605,                                 !- Year Escalation 27
  1.2772,                                 !- Year Escalation 28
  1.2938,                                 !- Year Escalation 29
  1.3115;                                 !- Year Escalation 30

LifeCycleCost:UsePriceEscalation,
  U.S. Avg  Commercial-Coal,              !- Name
  Coal,                                   !- Resource
  2011,                                   !- Escalation Start Year
  January,                                !- Escalation Start Month
  0.9970,                                 !- Year Escalation 1
  1.0089,                                 !- Year Escalation 2
  1.0089,                                 !- Year Escalation 3
  0.9941,                                 !- Year Escalation 4
  0.9941,                                 !- Year Escalation 5
  1.0000,                                 !- Year Escalation 6
  1.0030,                                 !- Year Escalation 7
  1.0059,                                 !- Year Escalation 8
  1.0089,                                 !- Year Escalation 9
  1.0119,                                 !- Year Escalation 10
  1.0148,                                 !- Year Escalation 11
  1.0178,                                 !- Year Escalation 12
  1.0208,                                 !- Year Escalation 13
  1.0267,                                 !- Year Escalation 14
  1.0297,                                 !- Year Escalation 15
  1.0356,                                 !- Year Escalation 16
  1.0415,                                 !- Year Escalation 17
  1.0534,                                 !- Year Escalation 18
  1.0564,                                 !- Year Escalation 19
  1.0593,                                 !- Year Escalation 20
  1.0653,                                 !- Year Escalation 21
  1.0712,                                 !- Year Escalation 22
  1.0742,                                 !- Year Escalation 23
  1.0801,                                 !- Year Escalation 24
  1.0831,                                 !- Year Escalation 25
  1.0831,                                 !- Year Escalation 26
  1.0861,                                 !- Year Escalation 27
  1.0890,                                 !- Year Escalation 28
  1.0920,                                 !- Year Escalation 29
  1.0950;                                 !- Year Escalation 30

Building,
  bld_17,                                 !- Name
  ,                                       !- North Axis {deg}
  City,                                   !- Terrain
  ,                                       !- Loads Convergence Tolerance Value {W}
  ,                                       !- Temperature Convergence Tolerance Value {deltaC}
  ,                                       !- Solar Distribution
  ,                                       !- Maximum Number of Warmup Days
  ;                                       !- Minimum Number of Warmup Days

Shading:Building:Detailed,
  Shading Surface 40,                     !- Name
  ,                                       !- Transmittance Schedule Name
  ,                                       !- Number of Vertices
  -16.6634379785621, 87.9595040562607, 12, !- X,Y,Z Vertex 1 {m}
  -16.6634379785621, 87.9595040562607, 0, !- X,Y,Z Vertex 2 {m}
  -16.2447417512097, 95.5115806649478, 0, !- X,Y,Z Vertex 3 {m}
  -16.2447417512097, 95.5115806649478, 12; !- X,Y,Z Vertex 4 {m}

Shading:Building:Detailed,
  Shading Surface 41,                     !- Name
  ,                                       !- Transmittance Schedule Name
  ,                                       !- Number of Vertices
  -7.70370055831799, 87.4041892186099, 12, !- X,Y,Z Vertex 1 {m}
  -7.70370055831799, 87.4041892186099, 0, !- X,Y,Z Vertex 2 {m}
  -16.6634379785621, 87.9595040562607, 0, !- X,Y,Z Vertex 3 {m}
  -16.6634379785621, 87.9595040562607, 12; !- X,Y,Z Vertex 4 {m}

Shading:Building:Detailed,
  Shading Surface 42,                     !- Name
  ,                                       !- Transmittance Schedule Name
  ,                                       !- Number of Vertices
  -9.71340714439342, 53.3087838015041, 12, !- X,Y,Z Vertex 1 {m}
  -9.71340714439342, 53.3087838015041, 0, !- X,Y,Z Vertex 2 {m}
  -7.70370055831799, 87.4041892186099, 0, !- X,Y,Z Vertex 3 {m}
  -7.70370055831799, 87.4041892186099, 12; !- X,Y,Z Vertex 4 {m}

Shading:Building:Detailed,
  Shading Surface 43,                     !- Name
  ,                                       !- Transmittance Schedule Name
  ,                                       !- Number of Vertices
  -78.8795215202164, 57.3073638560447, 12, !- X,Y,Z Vertex 1 {m}
  -78.8795215202164, 57.3073638560447, 0, !- X,Y,Z Vertex 2 {m}
  -9.71340714439342, 53.3087838015041, 0, !- X,Y,Z Vertex 3 {m}
  -9.71340714439342, 53.3087838015041, 12; !- X,Y,Z Vertex 4 {m}

Shading:Building:Detailed,
  Shading Surface 44,                     !- Name
  ,                                       !- Transmittance Schedule Name
  ,                                       !- Number of Vertices
  -68.9145708846278, 93.1796299990954, 12, !- X,Y,Z Vertex 1 {m}
  -68.9145708846278, 93.1796299990954, 0, !- X,Y,Z Vertex 2 {m}
  -76.7857322446576, 93.6239487588905, 0, !- X,Y,Z Vertex 3 {m}
  -76.7857322446576, 93.6239487588905, 12; !- X,Y,Z Vertex 4 {m}

Shading:Building:Detailed,
  Shading Surface 45,                     !- Name
  ,                                       !- Transmittance Schedule Name
  ,                                       !- Number of Vertices
  -68.5795773426064, 98.5105051409118, 12, !- X,Y,Z Vertex 1 {m}
  -68.5795773426064, 98.5105051409118, 0, !- X,Y,Z Vertex 2 {m}
  -68.9145708846278, 93.1796299990954, 0, !- X,Y,Z Vertex 3 {m}
  -68.9145708846278, 93.1796299990954, 12; !- X,Y,Z Vertex 4 {m}

Shading:Building:Detailed,
  Shading Surface 46,                     !- Name
  ,                                       !- Transmittance Schedule Name
  ,                                       !- Number of Vertices
  -16.2447417512097, 95.5115806649478, 12, !- X,Y,Z Vertex 1 {m}
  -16.2447417512097, 95.5115806649478, 0, !- X,Y,Z Vertex 2 {m}
  -68.5795773426064, 98.5105051409118, 0, !- X,Y,Z Vertex 3 {m}
  -68.5795773426064, 98.5105051409118, 12; !- X,Y,Z Vertex 4 {m}

Shading:Building:Detailed,
  Shading Surface 47,                     !- Name
  ,                                       !- Transmittance Schedule Name
  ,                                       !- Number of Vertices
  -16.2447417512097, 95.5115806649478, 0, !- X,Y,Z Vertex 1 {m}
  -16.6634379785621, 87.9595040562607, 0, !- X,Y,Z Vertex 2 {m}
  -7.70370055831799, 87.4041892186099, 0, !- X,Y,Z Vertex 3 {m}
  -9.71340714439342, 53.3087838015041, 0, !- X,Y,Z Vertex 4 {m}
  -78.8795215202164, 57.3073638560447, 0, !- X,Y,Z Vertex 5 {m}
  -76.7857322446576, 93.6239487588905, 0, !- X,Y,Z Vertex 6 {m}
  -68.9145708846278, 93.1796299990954, 0, !- X,Y,Z Vertex 7 {m}
  -68.5795773426064, 98.5105051409118, 0; !- X,Y,Z Vertex 8 {m}

Shading:Building:Detailed,
  Shading Surface 48,                     !- Name
  ,                                       !- Transmittance Schedule Name
  ,                                       !- Number of Vertices
  -76.7857322446576, 93.6239487588905, 12, !- X,Y,Z Vertex 1 {m}
  -76.7857322446576, 93.6239487588905, 0, !- X,Y,Z Vertex 2 {m}
  -78.8795215202164, 57.3073638560447, 0, !- X,Y,Z Vertex 3 {m}
  -78.8795215202164, 57.3073638560447, 12; !- X,Y,Z Vertex 4 {m}

Shading:Building:Detailed,
  Shading Surface 49,                     !- Name
  ,                                       !- Transmittance Schedule Name
  ,                                       !- Number of Vertices
  -68.5795773426064, 98.5105051409118, 12, !- X,Y,Z Vertex 1 {m}
  -68.9145708846278, 93.1796299990954, 12, !- X,Y,Z Vertex 2 {m}
  -76.7857322446576, 93.6239487588905, 12, !- X,Y,Z Vertex 3 {m}
  -78.8795215202164, 57.3073638560447, 12, !- X,Y,Z Vertex 4 {m}
  -9.71340714439342, 53.3087838015041, 12, !- X,Y,Z Vertex 5 {m}
  -7.70370055831799, 87.4041892186099, 12, !- X,Y,Z Vertex 6 {m}
  -16.6634379785621, 87.9595040562607, 12, !- X,Y,Z Vertex 7 {m}
  -16.2447417512097, 95.5115806649478, 12; !- X,Y,Z Vertex 8 {m}

Shading:Building:Detailed,
  Shading Surface 50,                     !- Name
  ,                                       !- Transmittance Schedule Name
  ,                                       !- Number of Vertices
  51.6655326797308, 17.4365957343229, 12, !- X,Y,Z Vertex 1 {m}
  51.6655326797308, 17.4365957343229, 0,  !- X,Y,Z Vertex 2 {m}
  50.6607993350624, 2.11031559098421, 0,  !- X,Y,Z Vertex 3 {m}
  50.6607993350624, 2.11031559098421, 12; !- X,Y,Z Vertex 4 {m}

Shading:Building:Detailed,
  Shading Surface 51,                     !- Name
  ,                                       !- Transmittance Schedule Name
  ,                                       !- Number of Vertices
  87.1698271532369, 22.3235727302415, 0,  !- X,Y,Z Vertex 1 {m}
  86.7512355002614, 14.6604310812193, 0,  !- X,Y,Z Vertex 2 {m}
  105.759487307995, 13.4390233809709, 0,  !- X,Y,Z Vertex 3 {m}
  104.838594779077, -1.22090325052106, 0, !- X,Y,Z Vertex 4 {m}
  50.6607993350624, 2.11031559098421, 0,  !- X,Y,Z Vertex 5 {m}
  51.6655326797308, 17.4365957343229, 0,  !- X,Y,Z Vertex 6 {m}
  67.4917748247358, 16.4371859180681, 0,  !- X,Y,Z Vertex 7 {m}
  67.9103918735143, 23.5450267170303, 0;  !- X,Y,Z Vertex 8 {m}

Shading:Building:Detailed,
  Shading Surface 52,                     !- Name
  ,                                       !- Transmittance Schedule Name
  ,                                       !- Number of Vertices
  105.759487307995, 13.4390233809709, 12, !- X,Y,Z Vertex 1 {m}
  105.759487307995, 13.4390233809709, 0,  !- X,Y,Z Vertex 2 {m}
  86.7512355002614, 14.6604310812193, 0,  !- X,Y,Z Vertex 3 {m}
  86.7512355002614, 14.6604310812193, 12; !- X,Y,Z Vertex 4 {m}

Shading:Building:Detailed,
  Shading Surface 53,                     !- Name
  ,                                       !- Transmittance Schedule Name
  ,                                       !- Number of Vertices
  50.6607993350624, 2.11031559098421, 12, !- X,Y,Z Vertex 1 {m}
  50.6607993350624, 2.11031559098421, 0,  !- X,Y,Z Vertex 2 {m}
  104.838594779077, -1.22090325052106, 0, !- X,Y,Z Vertex 3 {m}
  104.838594779077, -1.22090325052106, 12; !- X,Y,Z Vertex 4 {m}

Shading:Building:Detailed,
  Shading Surface 54,                     !- Name
  ,                                       !- Transmittance Schedule Name
  ,                                       !- Number of Vertices
  104.838594779077, -1.22090325052106, 12, !- X,Y,Z Vertex 1 {m}
  104.838594779077, -1.22090325052106, 0, !- X,Y,Z Vertex 2 {m}
  105.759487307995, 13.4390233809709, 0,  !- X,Y,Z Vertex 3 {m}
  105.759487307995, 13.4390233809709, 12; !- X,Y,Z Vertex 4 {m}

Shading:Building:Detailed,
  Shading Surface 55,                     !- Name
  ,                                       !- Transmittance Schedule Name
  ,                                       !- Number of Vertices
  67.9103918735143, 23.5450267170303, 12, !- X,Y,Z Vertex 1 {m}
  67.9103918735143, 23.5450267170303, 0,  !- X,Y,Z Vertex 2 {m}
  67.4917748247358, 16.4371859180681, 0,  !- X,Y,Z Vertex 3 {m}
  67.4917748247358, 16.4371859180681, 12; !- X,Y,Z Vertex 4 {m}

Shading:Building:Detailed,
  Shading Surface 56,                     !- Name
  ,                                       !- Transmittance Schedule Name
  ,                                       !- Number of Vertices
  67.9103918735143, 23.5450267170303, 12, !- X,Y,Z Vertex 1 {m}
  67.4917748247358, 16.4371859180681, 12, !- X,Y,Z Vertex 2 {m}
  51.6655326797308, 17.4365957343229, 12, !- X,Y,Z Vertex 3 {m}
  50.6607993350624, 2.11031559098421, 12, !- X,Y,Z Vertex 4 {m}
  104.838594779077, -1.22090325052106, 12, !- X,Y,Z Vertex 5 {m}
  105.759487307995, 13.4390233809709, 12, !- X,Y,Z Vertex 6 {m}
  86.7512355002614, 14.6604310812193, 12, !- X,Y,Z Vertex 7 {m}
  87.1698271532369, 22.3235727302415, 12; !- X,Y,Z Vertex 8 {m}

Shading:Building:Detailed,
  Shading Surface 57,                     !- Name
  ,                                       !- Transmittance Schedule Name
  ,                                       !- Number of Vertices
  86.7512355002614, 14.6604310812193, 12, !- X,Y,Z Vertex 1 {m}
  86.7512355002614, 14.6604310812193, 0,  !- X,Y,Z Vertex 2 {m}
  87.1698271532369, 22.3235727302415, 0,  !- X,Y,Z Vertex 3 {m}
  87.1698271532369, 22.3235727302415, 12; !- X,Y,Z Vertex 4 {m}

Shading:Building:Detailed,
  Shading Surface 58,                     !- Name
  ,                                       !- Transmittance Schedule Name
  ,                                       !- Number of Vertices
  67.4917748247358, 16.4371859180681, 12, !- X,Y,Z Vertex 1 {m}
  67.4917748247358, 16.4371859180681, 0,  !- X,Y,Z Vertex 2 {m}
  51.6655326797308, 17.4365957343229, 0,  !- X,Y,Z Vertex 3 {m}
  51.6655326797308, 17.4365957343229, 12; !- X,Y,Z Vertex 4 {m}

Shading:Building:Detailed,
  Shading Surface 59,                     !- Name
  ,                                       !- Transmittance Schedule Name
  ,                                       !- Number of Vertices
  87.1698271532369, 22.3235727302415, 12, !- X,Y,Z Vertex 1 {m}
  87.1698271532369, 22.3235727302415, 0,  !- X,Y,Z Vertex 2 {m}
  67.9103918735143, 23.5450267170303, 0,  !- X,Y,Z Vertex 3 {m}
  67.9103918735143, 23.5450267170303, 12; !- X,Y,Z Vertex 4 {m}

Shading:Building:Detailed,
  Shading Surface 60,                     !- Name
  ,                                       !- Transmittance Schedule Name
  ,                                       !- Number of Vertices
  -127.610896271327, 234.226593908731, 12, !- X,Y,Z Vertex 1 {m}
  -129.118480584678, 213.458402957408, 12, !- X,Y,Z Vertex 2 {m}
  -131.546792929646, 212.681026611225, 12, !- X,Y,Z Vertex 3 {m}
  -130.542035604722, 209.571328918224, 12, !- X,Y,Z Vertex 4 {m}
  -135.232308680836, 148.155246162492, 12, !- X,Y,Z Vertex 5 {m}
  -113.628659415116, 146.488976665729, 12, !- X,Y,Z Vertex 6 {m}
  -113.461143942255, 149.376533367891, 12, !- X,Y,Z Vertex 7 {m}
  -95.8767761300576, 148.154620394637, 12, !- X,Y,Z Vertex 8 {m}
  -95.2067783269018, 157.039409559747, 12, !- X,Y,Z Vertex 9 {m}
  -104.166031596973, 184.915586896907, 12, !- X,Y,Z Vertex 10 {m}
  -110.781068545833, 185.470984625429, 12, !- X,Y,Z Vertex 11 {m}
  -110.027299455041, 195.799551432544, 12, !- X,Y,Z Vertex 12 {m}
  -107.347794682485, 195.577391395175, 12, !- X,Y,Z Vertex 13 {m}
  -106.761539698485, 203.240521571546, 12, !- X,Y,Z Vertex 14 {m}
  -100.146481885882, 205.350567093812, 12, !- X,Y,Z Vertex 15 {m}
  -99.8114904304525, 209.237661930469, 12, !- X,Y,Z Vertex 16 {m}
  -95.2060755659589, 210.681379937967, 12, !- X,Y,Z Vertex 17 {m}
  -94.9548272139254, 214.124236188254, 12, !- X,Y,Z Vertex 18 {m}
  -92.442784859385, 214.901623698696, 12, !- X,Y,Z Vertex 19 {m}
  -91.6053007962913, 226.007611739157, 12, !- X,Y,Z Vertex 20 {m}
  -93.447382090652, 231.671694575546, 12; !- X,Y,Z Vertex 21 {m}

Shading:Building:Detailed,
  Shading Surface 61,                     !- Name
  ,                                       !- Transmittance Schedule Name
  ,                                       !- Number of Vertices
  -95.8767761300576, 148.154620394637, 12, !- X,Y,Z Vertex 1 {m}
  -95.8767761300576, 148.154620394637, 0, !- X,Y,Z Vertex 2 {m}
  -95.2067783269018, 157.039409559747, 0, !- X,Y,Z Vertex 3 {m}
  -95.2067783269018, 157.039409559747, 12; !- X,Y,Z Vertex 4 {m}

Shading:Building:Detailed,
  Shading Surface 62,                     !- Name
  ,                                       !- Transmittance Schedule Name
  ,                                       !- Number of Vertices
  -104.166031596973, 184.915586896907, 12, !- X,Y,Z Vertex 1 {m}
  -104.166031596973, 184.915586896907, 0, !- X,Y,Z Vertex 2 {m}
  -110.781068545833, 185.470984625429, 0, !- X,Y,Z Vertex 3 {m}
  -110.781068545833, 185.470984625429, 12; !- X,Y,Z Vertex 4 {m}

Shading:Building:Detailed,
  Shading Surface 63,                     !- Name
  ,                                       !- Transmittance Schedule Name
  ,                                       !- Number of Vertices
  -110.027299455041, 195.799551432544, 12, !- X,Y,Z Vertex 1 {m}
  -110.027299455041, 195.799551432544, 0, !- X,Y,Z Vertex 2 {m}
  -107.347794682485, 195.577391395175, 0, !- X,Y,Z Vertex 3 {m}
  -107.347794682485, 195.577391395175, 12; !- X,Y,Z Vertex 4 {m}

Shading:Building:Detailed,
  Shading Surface 64,                     !- Name
  ,                                       !- Transmittance Schedule Name
  ,                                       !- Number of Vertices
  -107.347794682485, 195.577391395175, 12, !- X,Y,Z Vertex 1 {m}
  -107.347794682485, 195.577391395175, 0, !- X,Y,Z Vertex 2 {m}
  -106.761539698485, 203.240521571546, 0, !- X,Y,Z Vertex 3 {m}
  -106.761539698485, 203.240521571546, 12; !- X,Y,Z Vertex 4 {m}

Shading:Building:Detailed,
  Shading Surface 65,                     !- Name
  ,                                       !- Transmittance Schedule Name
  ,                                       !- Number of Vertices
  -94.9548272139254, 214.124236188254, 12, !- X,Y,Z Vertex 1 {m}
  -94.9548272139254, 214.124236188254, 0, !- X,Y,Z Vertex 2 {m}
  -92.442784859385, 214.901623698696, 0,  !- X,Y,Z Vertex 3 {m}
  -92.442784859385, 214.901623698696, 12; !- X,Y,Z Vertex 4 {m}

Shading:Building:Detailed,
  Shading Surface 66,                     !- Name
  ,                                       !- Transmittance Schedule Name
  ,                                       !- Number of Vertices
  -95.2060755659589, 210.681379937967, 12, !- X,Y,Z Vertex 1 {m}
  -95.2060755659589, 210.681379937967, 0, !- X,Y,Z Vertex 2 {m}
  -94.9548272139254, 214.124236188254, 0, !- X,Y,Z Vertex 3 {m}
  -94.9548272139254, 214.124236188254, 12; !- X,Y,Z Vertex 4 {m}

Shading:Building:Detailed,
  Shading Surface 67,                     !- Name
  ,                                       !- Transmittance Schedule Name
  ,                                       !- Number of Vertices
  -93.447382090652, 231.671694575546, 0,  !- X,Y,Z Vertex 1 {m}
  -91.6053007962913, 226.007611739157, 0, !- X,Y,Z Vertex 2 {m}
  -92.442784859385, 214.901623698696, 0,  !- X,Y,Z Vertex 3 {m}
  -94.9548272139254, 214.124236188254, 0, !- X,Y,Z Vertex 4 {m}
  -95.2060755659589, 210.681379937967, 0, !- X,Y,Z Vertex 5 {m}
  -99.8114904304525, 209.237661930469, 0, !- X,Y,Z Vertex 6 {m}
  -100.146481885882, 205.350567093812, 0, !- X,Y,Z Vertex 7 {m}
  -106.761539698485, 203.240521571546, 0, !- X,Y,Z Vertex 8 {m}
  -107.347794682485, 195.577391395175, 0, !- X,Y,Z Vertex 9 {m}
  -110.027299455041, 195.799551432544, 0, !- X,Y,Z Vertex 10 {m}
  -110.781068545833, 185.470984625429, 0, !- X,Y,Z Vertex 11 {m}
  -104.166031596973, 184.915586896907, 0, !- X,Y,Z Vertex 12 {m}
  -95.2067783269018, 157.039409559747, 0, !- X,Y,Z Vertex 13 {m}
  -95.8767761300576, 148.154620394637, 0, !- X,Y,Z Vertex 14 {m}
  -113.461143942255, 149.376533367891, 0, !- X,Y,Z Vertex 15 {m}
  -113.628659415116, 146.488976665729, 0, !- X,Y,Z Vertex 16 {m}
  -135.232308680836, 148.155246162492, 0, !- X,Y,Z Vertex 17 {m}
  -130.542035604722, 209.571328918224, 0, !- X,Y,Z Vertex 18 {m}
  -131.546792929646, 212.681026611225, 0, !- X,Y,Z Vertex 19 {m}
  -129.118480584678, 213.458402957408, 0, !- X,Y,Z Vertex 20 {m}
  -127.610896271327, 234.226593908731, 0; !- X,Y,Z Vertex 21 {m}

Shading:Building:Detailed,
  Shading Surface 68,                     !- Name
  ,                                       !- Transmittance Schedule Name
  ,                                       !- Number of Vertices
  -113.461143942255, 149.376533367891, 12, !- X,Y,Z Vertex 1 {m}
  -113.461143942255, 149.376533367891, 0, !- X,Y,Z Vertex 2 {m}
  -95.8767761300576, 148.154620394637, 0, !- X,Y,Z Vertex 3 {m}
  -95.8767761300576, 148.154620394637, 12; !- X,Y,Z Vertex 4 {m}

Shading:Building:Detailed,
  Shading Surface 69,                     !- Name
  ,                                       !- Transmittance Schedule Name
  ,                                       !- Number of Vertices
  -131.546792929646, 212.681026611225, 12, !- X,Y,Z Vertex 1 {m}
  -131.546792929646, 212.681026611225, 0, !- X,Y,Z Vertex 2 {m}
  -130.542035604722, 209.571328918224, 0, !- X,Y,Z Vertex 3 {m}
  -130.542035604722, 209.571328918224, 12; !- X,Y,Z Vertex 4 {m}

Shading:Building:Detailed,
  Shading Surface 70,                     !- Name