    ConvergenceLimits,
      0,                       !- Minimum System Timestep {minutes}
      25;                      !- Maximum HVAC Iterations
    
Version,
  22.2;                                   !- Version Identifier

Timestep,
  1;                                      !- Number of Timesteps per Hour

LifeCycleCost:Parameters,
  Life Cycle Cost Parameters,             !- Name
  EndOfYear,                              !- Discounting Convention
  ConstantDollar,                         !- Inflation Approach
  0.03,                                   !- Real Discount Rate
  ,                                       !- Nominal Discount Rate
  ,                                       !- Inflation
  ,                                       !- Base Date Month
  2011,                                   !- Base Date Year
  ,                                       !- Service Date Month
  2011,                                   !- Service Date Year
  25,                                     !- Length of Study Period in Years
  ,                                       !- Tax rate
  None;                                   !- Depreciation Method

LifeCycleCost:UsePriceEscalation,
  U.S. Avg  Commercial-Electricity,       !- Name
  Electricity,                            !- Resource
  2011,                                   !- Escalation Start Year
  January,                                !- Escalation Start Month
  0.9838,                                 !- Year Escalation 1
  0.9730,                                 !- Year Escalation 2
  0.9632,                                 !- Year Escalation 3
  0.9611,                                 !- Year Escalation 4
  0.9571,                                 !- Year Escalation 5
  0.9553,                                 !- Year Escalation 6
  0.9539,                                 !- Year Escalation 7
  0.9521,                                 !- Year Escalation 8
  0.9546,                                 !- Year Escalation 9
  0.9550,                                 !- Year Escalation 10
  0.9553,                                 !- Year Escalation 11
  0.9564,                                 !- Year Escalation 12
  0.9575,                                 !- Year Escalation 13
  0.9596,                                 !- Year Escalation 14
  0.9618,                                 !- Year Escalation 15
  0.9614,                                 !- Year Escalation 16
  0.9618,                                 !- Year Escalation 17
  0.9618,                                 !- Year Escalation 18
  0.9593,                                 !- Year Escalation 19
  0.9589,                                 !- Year Escalation 20
  0.9607,                                 !- Year Escalation 21
  0.9625,                                 !- Year Escalation 22
  0.9650,                                 !- Year Escalation 23
  0.9708,                                 !- Year Escalation 24
  0.9751,                                 !- Year Escalation 25
  0.9762,                                 !- Year Escalation 26
  0.9766,                                 !- Year Escalation 27
  0.9766,                                 !- Year Escalation 28
  0.9769,                                 !- Year Escalation 29
  0.9773;                                 !- Year Escalation 30

LifeCycleCost:UsePriceEscalation,
  U.S. Avg  Commercial-Distillate Oil,    !- Name
  FuelOilNo1,                             !- Resource
  2011,                                   !- Escalation Start Year
  January,                                !- Escalation Start Month
  0.9714,                                 !- Year Escalation 1
  0.9730,                                 !- Year Escalation 2
  0.9942,                                 !- Year Escalation 3
  1.0164,                                 !- Year Escalation 4
  1.0541,                                 !- Year Escalation 5
  1.0928,                                 !- Year Escalation 6
  1.1267,                                 !- Year Escalation 7
  1.1580,                                 !- Year Escalation 8
  1.1792,                                 !- Year Escalation 9
  1.1967,                                 !- Year Escalation 10
  1.2200,                                 !- Year Escalation 11
  1.2333,                                 !- Year Escalation 12
  1.2566,                                 !- Year Escalation 13
  1.2709,                                 !- Year Escalation 14
  1.2826,                                 !- Year Escalation 15
  1.2985,                                 !- Year Escalation 16
  1.3102,                                 !- Year Escalation 17
  1.3250,                                 !- Year Escalation 18
  1.3261,                                 !- Year Escalation 19
  1.3282,                                 !- Year Escalation 20
  1.3324,                                 !- Year Escalation 21
  1.3356,                                 !- Year Escalation 22
  1.3431,                                 !- Year Escalation 23
  1.3510,                                 !- Year Escalation 24
  1.3568,                                 !- Year Escalation 25
  1.3606,                                 !- Year Escalation 26
  1.3637,                                 !- Year Escalation 27
  1.3674,                                 !- Year Escalation 28
  1.3706,                                 !- Year Escalation 29
  1.3743;                                 !- Year Escalation 30

LifeCycleCost:UsePriceEscalation,
  U.S. Avg  Commercial-Residual Oil,      !- Name
  FuelOilNo2,                             !- Resource
  2011,                                   !- Escalation Start Year
  January,                                !- Escalation Start Month
  0.8469,                                 !- Year Escalation 1
  0.8257,                                 !- Year Escalation 2
  0.8681,                                 !- Year Escalation 3
  0.8988,                                 !- Year Escalation 4
  0.9289,                                 !- Year Escalation 5
  0.9604,                                 !- Year Escalation 6
  0.9897,                                 !- Year Escalation 7
  1.0075,                                 !- Year Escalation 8
  1.0314,                                 !- Year Escalation 9
  1.0554,                                 !- Year Escalation 10
  1.0861,                                 !- Year Escalation 11
  1.1278,                                 !- Year Escalation 12
  1.1497,                                 !- Year Escalation 13
  1.1620,                                 !- Year Escalation 14
  1.1743,                                 !- Year Escalation 15
  1.1852,                                 !- Year Escalation 16
  1.1948,                                 !- Year Escalation 17
  1.2037,                                 !- Year Escalation 18
  1.2071,                                 !- Year Escalation 19
  1.2119,                                 !- Year Escalation 20
  1.2139,                                 !- Year Escalation 21
  1.2194,                                 !- Year Escalation 22
  1.2276,                                 !- Year Escalation 23
  1.2365,                                 !- Year Escalation 24
  1.2420,                                 !- Year Escalation 25
  1.2461,                                 !- Year Escalation 26
  1.2509,                                 !- Year Escalation 27
  1.2550,                                 !- Year Escalation 28
  1.2591,                                 !- Year Escalation 29
  1.2638;                                 !- Year Escalation 30

LifeCycleCost:UsePriceEscalation,
  U.S. Avg  Commercial-Natural gas,       !- Name
  NaturalGas,                             !- Resource
  2011,                                   !- Escalation Start Year
  January,                                !- Escalation Start Month
  0.9823,                                 !- Year Escalation 1
  0.9557,                                 !- Year Escalation 2
  0.9279,                                 !- Year Escalation 3
  0.9257,                                 !- Year Escalation 4
  0.9346,                                 !- Year Escalation 5
  0.9412,                                 !- Year Escalation 6
  0.9512,                                 !- Year Escalation 7
  0.9645,                                 !- Year Escalation 8
  0.9856,                                 !- Year Escalation 9
  1.0067,                                 !- Year Escalation 10
  1.0222,                                 !- Year Escalation 11
  1.0410,                                 !- Year Escalation 12
  1.0610,                                 !- Year Escalation 13
  1.0787,                                 !- Year Escalation 14
  1.0942,                                 !- Year Escalation 15
  1.1098,                                 !- Year Escalation 16
  1.1220,                                 !- Year Escalation 17
  1.1308,                                 !- Year Escalation 18
  1.1386,                                 !- Year Escalation 19
  1.1486,                                 !- Year Escalation 20
  1.1619,                                 !- Year Escalation 21
  1.1763,                                 !- Year Escalation 22
  1.1918,                                 !- Year Escalation 23
  1.2118,                                 !- Year Escalation 24
  1.2284,                                 !- Year Escalation 25
  1.2439,                                 !- Year Escalation 26
  1.2605,                                 !- Year Escalation 27
  1.2772,                                 !- Year Escalation 28
  1.2938,                                 !- Year Escalation 29
  1.3115;                                 !- Year Escalation 30

LifeCycleCost:UsePriceEscalation,
  U.S. Avg  Commercial-Coal,              !- Name
  Coal,                                   !- Resource
  2011,                                   !- Escalation Start Year
  January,                                !- Escalation Start Month
  0.9970,                                 !- Year Escalation 1
  1.0089,                                 !- Year Escalation 2
  1.0089,                                 !- Year Escalation 3
  0.9941,                                 !- Year Escalation 4
  0.9941,                                 !- Year Escalation 5
  1.0000,                                 !- Year Escalation 6
  1.0030,                                 !- Year Escalation 7
  1.0059,                                 !- Year Escalation 8
  1.0089,                                 !- Year Escalation 9
  1.0119,                                 !- Year Escalation 10
  1.0148,                                 !- Year Escalation 11
  1.0178,                                 !- Year Escalation 12
  1.0208,                                 !- Year Escalation 13
  1.0267,                                 !- Year Escalation 14
  1.0297,                                 !- Year Escalation 15
  1.0356,                                 !- Year Escalation 16
  1.0415,                                 !- Year Escalation 17
  1.0534,                                 !- Year Escalation 18
  1.0564,                                 !- Year Escalation 19
  1.0593,                                 !- Year Escalation 20
  1.0653,                                 !- Year Escalation 21
  1.0712,                                 !- Year Escalation 22
  1.0742,                                 !- Year Escalation 23
  1.0801,                                 !- Year Escalation 24
  1.0831,                                 !- Year Escalation 25
  1.0831,                                 !- Year Escalation 26
  1.0861,                                 !- Year Escalation 27
  1.0890,                                 !- Year Escalation 28
  1.0920,                                 !- Year Escalation 29
  1.0950;                                 !- Year Escalation 30

Building,
  bld_33,                                 !- Name
  ,                                       !- North Axis {deg}
  City,                                   !- Terrain
  ,                                       !- Loads Convergence Tolerance Value {W}
  ,                                       !- Temperature Convergence Tolerance Value {deltaC}
  ,                                       !- Solar Distribution
  ,                                       !- Maximum Number of Warmup Days
  ;                                       !- Minimum Number of Warmup Days

Shading:Building:Detailed,
  Shading Surface 1,                      !- Name
  ,                                       !- Transmittance Schedule Name
  ,                                       !- Number of Vertices
  210.504421397868, 223.011507584431, 0,  !- X,Y,Z Vertex 1 {m}
  209.918833537622, 204.242349424714, 0,  !- X,Y,Z Vertex 2 {m}
  201.294320068889, 204.464225422883, 0,  !- X,Y,Z Vertex 3 {m}
  201.879930185977, 223.233382893946, 0;  !- X,Y,Z Vertex 4 {m}

Shading:Building:Detailed,
  Shading Surface 2,                      !- Name
  ,                                       !- Transmittance Schedule Name
  ,                                       !- Number of Vertices
  201.294320068889, 204.464225422883, 12, !- X,Y,Z Vertex 1 {m}
  201.294320068889, 204.464225422883, 0,  !- X,Y,Z Vertex 2 {m}
  209.918833537622, 204.242349424714, 0,  !- X,Y,Z Vertex 3 {m}
  209.918833537622, 204.242349424714, 12; !- X,Y,Z Vertex 4 {m}

Shading:Building:Detailed,
  Shading Surface 3,                      !- Name
  ,                                       !- Transmittance Schedule Name
  ,                                       !- Number of Vertices
  201.879930185977, 223.233382893946, 12, !- X,Y,Z Vertex 1 {m}
  201.879930185977, 223.233382893946, 0,  !- X,Y,Z Vertex 2 {m}
  201.294320068889, 204.464225422883, 0,  !- X,Y,Z Vertex 3 {m}
  201.294320068889, 204.464225422883, 12; !- X,Y,Z Vertex 4 {m}

Shading:Building:Detailed,
  Shading Surface 4,                      !- Name
  ,                                       !- Transmittance Schedule Name
  ,                                       !- Number of Vertices
  209.918833537622, 204.242349424714, 12, !- X,Y,Z Vertex 1 {m}
  209.918833537622, 204.242349424714, 0,  !- X,Y,Z Vertex 2 {m}
  210.504421397868, 223.011507584431, 0,  !- X,Y,Z Vertex 3 {m}
  210.504421397868, 223.011507584431, 12; !- X,Y,Z Vertex 4 {m}

Shading:Building:Detailed,
  Shading Surface 5,                      !- Name
  ,                                       !- Transmittance Schedule Name
  ,                                       !- Number of Vertices
  210.504421397868, 223.011507584431, 12, !- X,Y,Z Vertex 1 {m}
  210.504421397868, 223.011507584431, 0,  !- X,Y,Z Vertex 2 {m}
  201.879930185977, 223.233382893946, 0,  !- X,Y,Z Vertex 3 {m}
  201.879930185977, 223.233382893946, 12; !- X,Y,Z Vertex 4 {m}

Shading:Building:Detailed,
  Shading Surface 6,                      !- Name
  ,                                       !- Transmittance Schedule Name
  ,                                       !- Number of Vertices
  201.879930185977, 223.233382893946, 12, !- X,Y,Z Vertex 1 {m}
  201.294320068889, 204.464225422883, 12, !- X,Y,Z Vertex 2 {m}
  209.918833537622, 204.242349424714, 12, !- X,Y,Z Vertex 3 {m}
  210.504421397868, 223.011507584431, 12; !- X,Y,Z Vertex 4 {m}

Shading:Building:Detailed,
  Shading Surface 74,                     !- Name
  ,                                       !- Transmittance Schedule Name
  ,                                       !- Number of Vertices
  65.0627753701292, -38.315397251359, 12, !- X,Y,Z Vertex 1 {m}
  65.0627753701292, -38.315397251359, 0,  !- X,Y,Z Vertex 2 {m}
  56.1030323904769, -37.7601721258256, 0, !- X,Y,Z Vertex 3 {m}
  56.1030323904769, -37.7601721258256, 12; !- X,Y,Z Vertex 4 {m}

Shading:Building:Detailed,
  Shading Surface 75,                     !- Name
  ,                                       !- Transmittance Schedule Name
  ,                                       !- Number of Vertices
  56.5216530004737, -30.2080913245204, 0, !- X,Y,Z Vertex 1 {m}
  56.1030323904769, -37.7601721258256, 0, !- X,Y,Z Vertex 2 {m}
  65.0627753701292, -38.315397251359, 0,  !- X,Y,Z Vertex 3 {m}
  63.0534101729144, -72.4108227903775, 0, !- X,Y,Z Vertex 4 {m}
  -6.11274423707945, -68.4129352762985, 0, !- X,Y,Z Vertex 5 {m}
  -4.01931859057152, -32.0963294095666, 0, !- X,Y,Z Vertex 6 {m}
  3.85184721844533, -32.5405693584294, 0, !- X,Y,Z Vertex 7 {m}
  4.18678738352305, -27.2096908621668, 0; !- X,Y,Z Vertex 8 {m}

Shading:Building:Detailed,
  Shading Surface 76,                     !- Name
  ,                                       !- Transmittance Schedule Name
  ,                                       !- Number of Vertices
  4.18678738352305, -27.2096908621668, 12, !- X,Y,Z Vertex 1 {m}
  4.18678738352305, -27.2096908621668, 0, !- X,Y,Z Vertex 2 {m}
  3.85184721844533, -32.5405693584294, 0, !- X,Y,Z Vertex 3 {m}
  3.85184721844533, -32.5405693584294, 12; !- X,Y,Z Vertex 4 {m}

Shading:Building:Detailed,
  Shading Surface 77,                     !- Name
  ,                                       !- Transmittance Schedule Name
  ,                                       !- Number of Vertices
  63.0534101729144, -72.4108227903775, 12, !- X,Y,Z Vertex 1 {m}
  63.0534101729144, -72.4108227903775, 0, !- X,Y,Z Vertex 2 {m}
  65.0627753701292, -38.315397251359, 0,  !- X,Y,Z Vertex 3 {m}
  65.0627753701292, -38.315397251359, 12; !- X,Y,Z Vertex 4 {m}

Shading:Building:Detailed,
  Shading Surface 78,                     !- Name
  ,                                       !- Transmittance Schedule Name
  ,                                       !- Number of Vertices
  -4.01931859057152, -32.0963294095666, 12, !- X,Y,Z Vertex 1 {m}
  -4.01931859057152, -32.0963294095666, 0, !- X,Y,Z Vertex 2 {m}
  -6.11274423707945, -68.4129352762985, 0, !- X,Y,Z Vertex 3 {m}
  -6.11274423707945, -68.4129352762985, 12; !- X,Y,Z Vertex 4 {m}

Shading:Building:Detailed,
  Shading Surface 79,                     !- Name
  ,                                       !- Transmittance Schedule Name
  ,                                       !- Number of Vertices
  56.5216530004737, -30.2080913245204, 12, !- X,Y,Z Vertex 1 {m}
  56.5216530004737, -30.2080913245204, 0, !- X,Y,Z Vertex 2 {m}
  4.18678738352305, -27.2096908621668, 0, !- X,Y,Z Vertex 3 {m}
  4.18678738352305, -27.2096908621668, 12; !- X,Y,Z Vertex 4 {m}

Shading:Building:Detailed,
  Shading Surface 80,                     !- Name
  ,                                       !- Transmittance Schedule Name
  ,                                       !- Number of Vertices
  3.85184721844533, -32.5405693584294, 12, !- X,Y,Z Vertex 1 {m}
  3.85184721844533, -32.5405693584294, 0, !- X,Y,Z Vertex 2 {m}
  -4.01931859057152, -32.0963294095666, 0, !- X,Y,Z Vertex 3 {m}
  -4.01931859057152, -32.0963294095666, 12; !- X,Y,Z Vertex 4 {m}

Shading:Building:Detailed,
  Shading Surface 81,                     !- Name
  ,                                       !- Transmittance Schedule Name
  ,                                       !- Number of Vertices
  -6.11274423707945, -68.4129352762985, 12, !- X,Y,Z Vertex 1 {m}
  -6.11274423707945, -68.4129352762985, 0, !- X,Y,Z Vertex 2 {m}
  63.0534101729144, -72.4108227903775, 0, !- X,Y,Z Vertex 3 {m}
  63.0534101729144, -72.4108227903775, 12; !- X,Y,Z Vertex 4 {m}

Shading:Building:Detailed,
  Shading Surface 82,                     !- Name
  ,                                       !- Transmittance Schedule Name
  ,                                       !- Number of Vertices
  4.18678738352305, -27.2096908621668, 12, !- X,Y,Z Vertex 1 {m}
  3.85184721844533, -32.5405693584294, 12, !- X,Y,Z Vertex 2 {m}
  -4.01931859057152, -32.0963294095666, 12, !- X,Y,Z Vertex 3 {m}
  -6.11274423707945, -68.4129352762985, 12, !- X,Y,Z Vertex 4 {m}
  63.0534101729144, -72.4108227903775, 12, !- X,Y,Z Vertex 5 {m}
  65.0627753701292, -38.315397251359, 12, !- X,Y,Z Vertex 6 {m}
  56.1030323904769, -37.7601721258256, 12, !- X,Y,Z Vertex 7 {m}
  56.5216530004737, -30.2080913245204, 12; !- X,Y,Z Vertex 8 {m}

Shading:Building:Detailed,
  Shading Surface 83,                     !- Name
  ,                                       !- Transmittance Schedule Name
  ,                                       !- Number of Vertices
  56.1030323904769, -37.7601721258256, 12, !- X,Y,Z Vertex 1 {m}
  56.1030323904769, -37.7601721258256, 0, !- X,Y,Z Vertex 2 {m}
  56.5216530004737, -30.2080913245204, 0, !- X,Y,Z Vertex 3 {m}
  56.5216530004737, -30.2080913245204, 12; !- X,Y,Z Vertex 4 {m}

Shading:Building:Detailed,
  Shading Surface 84,                     !- Name
  ,                                       !- Transmittance Schedule Name
  ,                                       !- Number of Vertices
  140.258961312816, -109.281647618273, 12, !- X,Y,Z Vertex 1 {m}
  140.258961312816, -109.281647618273, 0, !- X,Y,Z Vertex 2 {m}
  124.432709164571, -108.282396270851, 0, !- X,Y,Z Vertex 3 {m}
  124.432709164571, -108.282396270851, 12; !- X,Y,Z Vertex 4 {m}

Shading:Building:Detailed,
  Shading Surface 85,                     !- Name
  ,                                       !- Transmittance Schedule Name
  ,                                       !- Number of Vertices
  140.677507193127, -102.173802628978, 12, !- X,Y,Z Vertex 1 {m}
  140.677507193127, -102.173802628978, 0, !- X,Y,Z Vertex 2 {m}
  140.258961312816, -109.281647618273, 0, !- X,Y,Z Vertex 3 {m}
  140.258961312816, -109.281647618273, 12; !- X,Y,Z Vertex 4 {m}

Shading:Building:Detailed,
  Shading Surface 86,                     !- Name
  ,                                       !- Transmittance Schedule Name
  ,                                       !- Number of Vertices
  178.526703805306, -112.279426975813, 12, !- X,Y,Z Vertex 1 {m}
  178.526703805306, -112.279426975813, 0, !- X,Y,Z Vertex 2 {m}
  159.518439773499, -111.058209608166, 0, !- X,Y,Z Vertex 3 {m}
  159.518439773499, -111.058209608166, 12; !- X,Y,Z Vertex 4 {m}

Shading:Building:Detailed,
  Shading Surface 87,                     !- Name
  ,                                       !- Transmittance Schedule Name
  ,                                       !- Number of Vertices
  159.518439773499, -111.058209608166, 12, !- X,Y,Z Vertex 1 {m}
  159.518439773499, -111.058209608166, 0, !- X,Y,Z Vertex 2 {m}
  159.936954697977, -103.395063769177, 0, !- X,Y,Z Vertex 3 {m}
  159.936954697977, -103.395063769177, 12; !- X,Y,Z Vertex 4 {m}

Shading:Building:Detailed,
  Shading Surface 88,                     !- Name
  ,                                       !- Transmittance Schedule Name
  ,                                       !- Number of Vertices
  123.42812927661, -123.608686471295, 12, !- X,Y,Z Vertex 1 {m}
  123.42812927661, -123.608686471295, 0,  !- X,Y,Z Vertex 2 {m}
  177.605958061114, -126.939362825042, 0, !- X,Y,Z Vertex 3 {m}
  177.605958061114, -126.939362825042, 12; !- X,Y,Z Vertex 4 {m}

Shading:Building:Detailed,
  Shading Surface 89,                     !- Name
  ,                                       !- Transmittance Schedule Name
  ,                                       !- Number of Vertices
  159.936954697977, -103.395063769177, 0, !- X,Y,Z Vertex 1 {m}
  159.518439773499, -111.058209608166, 0, !- X,Y,Z Vertex 2 {m}
  178.526703805306, -112.279426975813, 0, !- X,Y,Z Vertex 3 {m}
  177.605958061114, -126.939362825042, 0, !- X,Y,Z Vertex 4 {m}
  123.42812927661, -123.608686471295, 0,  !- X,Y,Z Vertex 5 {m}
  124.432709164571, -108.282396270851, 0, !- X,Y,Z Vertex 6 {m}
  140.258961312816, -109.281647618273, 0, !- X,Y,Z Vertex 7 {m}
  140.677507193127, -102.173802628978, 0; !- X,Y,Z Vertex 8 {m}

Shading:Building:Detailed,
  Shading Surface 90,                     !- Name
  ,                                       !- Transmittance Schedule Name
  ,                                       !- Number of Vertices
  124.432709164571, -108.282396270851, 12, !- X,Y,Z Vertex 1 {m}
  124.432709164571, -108.282396270851, 0, !- X,Y,Z Vertex 2 {m}
  123.42812927661, -123.608686471295, 0,  !- X,Y,Z Vertex 3 {m}
  123.42812927661, -123.608686471295, 12; !- X,Y,Z Vertex 4 {m}

Shading:Building:Detailed,
  Shading Surface 91,                     !- Name
  ,                                       !- Transmittance Schedule Name
  ,                                       !- Number of Vertices
  159.936954697977, -103.395063769177, 12, !- X,Y,Z Vertex 1 {m}
  159.936954697977, -103.395063769177, 0, !- X,Y,Z Vertex 2 {m}
  140.677507193127, -102.173802628978, 0, !- X,Y,Z Vertex 3 {m}
  140.677507193127, -102.173802628978, 12; !- X,Y,Z Vertex 4 {m}

Shading:Building:Detailed,
  Shading Surface 92,                     !- Name
  ,                                       !- Transmittance Schedule Name
  ,                                       !- Number of Vertices
  140.677507193127, -102.173802628978, 12, !- X,Y,Z Vertex 1 {m}
  140.258961312816, -109.281647618273, 12, !- X,Y,Z Vertex 2 {m}
  124.432709164571, -108.282396270851, 12, !- X,Y,Z Vertex 3 {m}
  123.42812927661, -123.608686471295, 12, !- X,Y,Z Vertex 4 {m}
  177.605958061114, -126.939362825042, 12, !- X,Y,Z Vertex 5 {m}
  178.526703805306, -112.279426975813, 12, !- X,Y,Z Vertex 6 {m}
  159.518439773499, -111.058209608166, 12, !- X,Y,Z Vertex 7 {m}
  159.936954697977, -103.395063769177, 12; !- X,Y,Z Vertex 8 {m}

Shading:Building:Detailed,
  Shading Surface 93,                     !- Name
  ,                                       !- Transmittance Schedule Name
  ,                                       !- Number of Vertices
  177.605958061114, -126.939362825042, 12, !- X,Y,Z Vertex 1 {m}
  177.605958061114, -126.939362825042, 0, !- X,Y,Z Vertex 2 {m}
  178.526703805306, -112.279426975813, 0, !- X,Y,Z Vertex 3 {m}
  178.526703805306, -112.279426975813, 12; !- X,Y,Z Vertex 4 {m}

Shading:Building:Detailed,
  Shading Surface 100,                    !- Name
  ,                                       !- Transmittance Schedule Name
  ,                                       !- Number of Vertices
  -38.0155745460129, 59.750366094035, 12, !- X,Y,Z Vertex 1 {m}
  -38.0155745460129, 59.750366094035, 0,  !- X,Y,Z Vertex 2 {m}
  -37.2619088747067, 70.078940451846, 0,  !- X,Y,Z Vertex 3 {m}
  -37.2619088747067, 70.078940451846, 12; !- X,Y,Z Vertex 4 {m}

Shading:Building:Detailed,
  Shading Surface 101,                    !- Name
  ,                                       !- Transmittance Schedule Name
  ,                                       !- Number of Vertices
  -22.4409996427145, 31.3189469582158, 12, !- X,Y,Z Vertex 1 {m}
  -22.4409996427145, 31.3189469582158, 0, !- X,Y,Z Vertex 2 {m}
  -31.4005320354744, 59.1950345984759, 0, !- X,Y,Z Vertex 3 {m}
  -31.4005320354744, 59.1950345984759, 12; !- X,Y,Z Vertex 4 {m}

Shading:Building:Detailed,
  Shading Surface 102,                    !- Name
  ,                                       !- Transmittance Schedule Name
  ,                                       !- Number of Vertices
  -22.1896201174142, 88.4037761282863, 12, !- X,Y,Z Vertex 1 {m}
  -22.1896201174142, 88.4037761282863, 0, !- X,Y,Z Vertex 2 {m}
  -19.6775855467278, 89.18118879102, 0,   !- X,Y,Z Vertex 3 {m}
  -19.6775855467278, 89.18118879102, 12;  !- X,Y,Z Vertex 4 {m}

Shading:Building:Detailed,
  Shading Surface 103,                    !- Name
  ,                                       !- Transmittance Schedule Name
  ,                                       !- Number of Vertices
  -33.996223624166, 77.5199432920867, 12, !- X,Y,Z Vertex 1 {m}
  -33.996223624166, 77.5199432920867, 0,  !- X,Y,Z Vertex 2 {m}
  -27.381186938961, 79.6300550486113, 0,  !- X,Y,Z Vertex 3 {m}
  -27.381186938961, 79.6300550486113, 12; !- X,Y,Z Vertex 4 {m}

Shading:Building:Detailed,
  Shading Surface 104,                    !- Name
  ,                                       !- Transmittance Schedule Name
  ,                                       !- Number of Vertices
  -27.381186938961, 79.6300550486113, 12, !- X,Y,Z Vertex 1 {m}
  -27.381186938961, 79.6300550486113, 0,  !- X,Y,Z Vertex 2 {m}
  -27.0462344049591, 83.5171532409308, 0, !- X,Y,Z Vertex 3 {m}
  -27.0462344049591, 83.5171532409308, 12; !- X,Y,Z Vertex 4 {m}

Shading:Building:Detailed,
  Shading Surface 105,                    !- Name
  ,                                       !- Transmittance Schedule Name
  ,                                       !- Number of Vertices
  -34.5824018774574, 69.8568072429645, 12, !- X,Y,Z Vertex 1 {m}
  -34.5824018774574, 69.8568072429645, 0, !- X,Y,Z Vertex 2 {m}
  -33.996223624166, 77.5199432920867, 0,  !- X,Y,Z Vertex 3 {m}
  -33.996223624166, 77.5199432920867, 12; !- X,Y,Z Vertex 4 {m}

Shading:Building:Detailed,
  Shading Surface 106,                    !- Name
  ,                                       !- Transmittance Schedule Name
  ,                                       !- Number of Vertices
  -31.4005320354744, 59.1950345984759, 12, !- X,Y,Z Vertex 1 {m}
  -31.4005320354744, 59.1950345984759, 0, !- X,Y,Z Vertex 2 {m}
  -38.0155745460129, 59.750366094035, 0,  !- X,Y,Z Vertex 3 {m}
  -38.0155745460129, 59.750366094035, 12; !- X,Y,Z Vertex 4 {m}

Shading:Building:Detailed,
  Shading Surface 107,                    !- Name
  ,                                       !- Transmittance Schedule Name
  ,                                       !- Number of Vertices
  -54.8458904628943, 108.505806888877, 12, !- X,Y,Z Vertex 1 {m}
  -54.8458904628943, 108.505806888877, 0, !- X,Y,Z Vertex 2 {m}
  -56.3532668240732, 87.7376008336042, 0, !- X,Y,Z Vertex 3 {m}
  -56.3532668240732, 87.7376008336042, 12; !- X,Y,Z Vertex 4 {m}

Shading:Building:Detailed,
  Shading Surface 108,                    !- Name
  ,                                       !- Transmittance Schedule Name
  ,                                       !- Number of Vertices