
Version,
  22.2;                                   !- Version Identifier

Timestep,
  1;                                      !- Number of Timesteps per Hour

LifeCycleCost:Parameters,
  Life Cycle Cost Parameters,             !- Name
  EndOfYear,                              !- Discounting Convention
  ConstantDollar,                         !- Inflation Approach
  0.03,                                   !- Real Discount Rate
  ,                                       !- Nominal Discount Rate
  ,                                       !- Inflation
  ,                                       !- Base Date Month
  2011,                                   !- Base Date Year
  ,                                       !- Service Date Month
  2011,                                   !- Service Date Year
  25,                                     !- Length of Study Period in Years
  ,                                       !- Tax rate
  None;                                   !- Depreciation Method

LifeCycleCost:UsePriceEscalation,
  U.S. Avg  Commercial-Electricity,       !- Name
  Electricity,                            !- Resource
  2011,                                   !- Escalation Start Year
  January,                                !- Escalation Start Month
  0.9838,                                 !- Year Escalation 1
  0.9730,                                 !- Year Escalation 2
  0.9632,                                 !- Year Escalation 3
  0.9611,                                 !- Year Escalation 4
  0.9571,                                 !- Year Escalation 5
  0.9553,                                 !- Year Escalation 6
  0.9539,                                 !- Year Escalation 7
  0.9521,                                 !- Year Escalation 8
  0.9546,                                 !- Year Escalation 9
  0.9550,                                 !- Year Escalation 10
  0.9553,                                 !- Year Escalation 11
  0.9564,                                 !- Year Escalation 12
  0.9575,                                 !- Year Escalation 13
  0.9596,                                 !- Year Escalation 14
  0.9618,                                 !- Year Escalation 15
  0.9614,                                 !- Year Escalation 16
  0.9618,                                 !- Year Escalation 17
  0.9618,                                 !- Year Escalation 18
  0.9593,                                 !- Year Escalation 19
  0.9589,                                 !- Year Escalation 20
  0.9607,                                 !- Year Escalation 21
  0.9625,                                 !- Year Escalation 22
  0.9650,                                 !- Year Escalation 23
  0.9708,                                 !- Year Escalation 24
  0.9751,                                 !- Year Escalation 25
  0.9762,                                 !- Year Escalation 26
  0.9766,                                 !- Year Escalation 27
  0.9766,                                 !- Year Escalation 28
  0.9769,                                 !- Year Escalation 29
  0.9773;                                 !- Year Escalation 30

LifeCycleCost:UsePriceEscalation,
  U.S. Avg  Commercial-Distillate Oil,    !- Name
  FuelOilNo1,                             !- Resource
  2011,                                   !- Escalation Start Year
  January,                                !- Escalation Start Month
  0.9714,                                 !- Year Escalation 1
  0.9730,                                 !- Year Escalation 2
  0.9942,                                 !- Year Escalation 3
  1.0164,                                 !- Year Escalation 4
  1.0541,                                 !- Year Escalation 5
  1.0928,                                 !- Year Escalation 6
  1.1267,                                 !- Year Escalation 7
  1.1580,                                 !- Year Escalation 8
  1.1792,                                 !- Year Escalation 9
  1.1967,                                 !- Year Escalation 10
  1.2200,                                 !- Year Escalation 11
  1.2333,                                 !- Year Escalation 12
  1.2566,                                 !- Year Escalation 13
  1.2709,                                 !- Year Escalation 14
  1.2826,                                 !- Year Escalation 15
  1.2985,                                 !- Year Escalation 16
  1.3102,                                 !- Year Escalation 17
  1.3250,                                 !- Year Escalation 18
  1.3261,                                 !- Year Escalation 19
  1.3282,                                 !- Year Escalation 20
  1.3324,                                 !- Year Escalation 21
  1.3356,                                 !- Year Escalation 22
  1.3431,                                 !- Year Escalation 23
  1.3510,                                 !- Year Escalation 24
  1.3568,                                 !- Year Escalation 25
  1.3606,                                 !- Year Escalation 26
  1.3637,                                 !- Year Escalation 27
  1.3674,                                 !- Year Escalation 28
  1.3706,                                 !- Year Escalation 29
  1.3743;                                 !- Year Escalation 30

LifeCycleCost:UsePriceEscalation,
  U.S. Avg  Commercial-Residual Oil,      !- Name
  FuelOilNo2,                             !- Resource
  2011,                                   !- Escalation Start Year
  January,                                !- Escalation Start Month
  0.8469,                                 !- Year Escalation 1
  0.8257,                                 !- Year Escalation 2
  0.8681,                                 !- Year Escalation 3
  0.8988,                                 !- Year Escalation 4
  0.9289,                                 !- Year Escalation 5
  0.9604,                                 !- Year Escalation 6
  0.9897,                                 !- Year Escalation 7
  1.0075,                                 !- Year Escalation 8
  1.0314,                                 !- Year Escalation 9
  1.0554,                                 !- Year Escalation 10
  1.0861,                                 !- Year Escalation 11
  1.1278,                                 !- Year Escalation 12
  1.1497,                                 !- Year Escalation 13
  1.1620,                                 !- Year Escalation 14
  1.1743,                                 !- Year Escalation 15
  1.1852,                                 !- Year Escalation 16
  1.1948,                                 !- Year Escalation 17
  1.2037,                                 !- Year Escalation 18
  1.2071,                                 !- Year Escalation 19
  1.2119,                                 !- Year Escalation 20
  1.2139,                                 !- Year Escalation 21
  1.2194,                                 !- Year Escalation 22
  1.2276,                                 !- Year Escalation 23
  1.2365,                                 !- Year Escalation 24
  1.2420,                                 !- Year Escalation 25
  1.2461,                                 !- Year Escalation 26
  1.2509,                                 !- Year Escalation 27
  1.2550,                                 !- Year Escalation 28
  1.2591,                                 !- Year Escalation 29
  1.2638;                                 !- Year Escalation 30

LifeCycleCost:UsePriceEscalation,
  U.S. Avg  Commercial-Natural gas,       !- Name
  NaturalGas,                             !- Resource
  2011,                                   !- Escalation Start Year
  January,                                !- Escalation Start Month
  0.9823,                                 !- Year Escalation 1
  0.9557,                                 !- Year Escalation 2
  0.9279,                                 !- Year Escalation 3
  0.9257,                                 !- Year Escalation 4
  0.9346,                                 !- Year Escalation 5
  0.9412,                                 !- Year Escalation 6
  0.9512,                                 !- Year Escalation 7
  0.9645,                                 !- Year Escalation 8
  0.9856,                                 !- Year Escalation 9
  1.0067,                                 !- Year Escalation 10
  1.0222,                                 !- Year Escalation 11
  1.0410,                                 !- Year Escalation 12
  1.0610,                                 !- Year Escalation 13
  1.0787,                                 !- Year Escalation 14
  1.0942,                                 !- Year Escalation 15
  1.1098,                                 !- Year Escalation 16
  1.1220,                                 !- Year Escalation 17
  1.1308,                                 !- Year Escalation 18
  1.1386,                                 !- Year Escalation 19
  1.1486,                                 !- Year Escalation 20
  1.1619,                                 !- Year Escalation 21
  1.1763,                                 !- Year Escalation 22
  1.1918,                                 !- Year Escalation 23
  1.2118,                                 !- Year Escalation 24
  1.2284,                                 !- Year Escalation 25
  1.2439,                                 !- Year Escalation 26
  1.2605,                                 !- Year Escalation 27
  1.2772,                                 !- Year Escalation 28
  1.2938,                                 !- Year Escalation 29
  1.3115;                                 !- Year Escalation 30

LifeCycleCost:UsePriceEscalation,
  U.S. Avg  Commercial-Coal,              !- Name
  Coal,                                   !- Resource
  2011,                                   !- Escalation Start Year
  January,                                !- Escalation Start Month
  0.9970,                                 !- Year Escalation 1
  1.0089,                                 !- Year Escalation 2
  1.0089,                                 !- Year Escalation 3
  0.9941,                                 !- Year Escalation 4
  0.9941,                                 !- Year Escalation 5
  1.0000,                                 !- Year Escalation 6
  1.0030,                                 !- Year Escalation 7
  1.0059,                                 !- Year Escalation 8
  1.0089,                                 !- Year Escalation 9
  1.0119,                                 !- Year Escalation 10
  1.0148,                                 !- Year Escalation 11
  1.0178,                                 !- Year Escalation 12
  1.0208,                                 !- Year Escalation 13
  1.0267,                                 !- Year Escalation 14
  1.0297,                                 !- Year Escalation 15
  1.0356,                                 !- Year Escalation 16
  1.0415,                                 !- Year Escalation 17
  1.0534,                                 !- Year Escalation 18
  1.0564,                                 !- Year Escalation 19
  1.0593,                                 !- Year Escalation 20
  1.0653,                                 !- Year Escalation 21
  1.0712,                                 !- Year Escalation 22
  1.0742,                                 !- Year Escalation 23
  1.0801,                                 !- Year Escalation 24
  1.0831,                                 !- Year Escalation 25
  1.0831,                                 !- Year Escalation 26
  1.0861,                                 !- Year Escalation 27
  1.0890,                                 !- Year Escalation 28
  1.0920,                                 !- Year Escalation 29
  1.0950;                                 !- Year Escalation 30

Building,
  bld_37,                                 !- Name
  ,                                       !- North Axis {deg}
  City,                                   !- Terrain
  ,                                       !- Loads Convergence Tolerance Value {W}
  ,                                       !- Temperature Convergence Tolerance Value {deltaC}
  ,                                       !- Solar Distribution
  ,                                       !- Maximum Number of Warmup Days
  ;                                       !- Minimum Number of Warmup Days

Shading:Building:Detailed,
  Shading Surface 46,                     !- Name
  ,                                       !- Transmittance Schedule Name
  ,                                       !- Number of Vertices
  -147.207505127758, 111.838865556537, 0, !- X,Y,Z Vertex 1 {m}
  -147.626337448705, 104.286796494434, 0, !- X,Y,Z Vertex 2 {m}
  -138.666610039309, 103.731320199241, 0, !- X,Y,Z Vertex 3 {m}
  -140.676931045598, 69.6359510043806, 0, !- X,Y,Z Vertex 4 {m}
  -209.842973329041, 73.6357774552519, 0, !- X,Y,Z Vertex 5 {m}
  -207.748529606094, 109.952324620204, 0, !- X,Y,Z Vertex 6 {m}
  -199.877376257778, 109.507864019565, 0, !- X,Y,Z Vertex 7 {m}
  -199.542286649737, 114.838733123597, 0; !- X,Y,Z Vertex 8 {m}

Shading:Building:Detailed,
  Shading Surface 47,                     !- Name
  ,                                       !- Transmittance Schedule Name
  ,                                       !- Number of Vertices
  -147.626337448705, 104.286796494434, 12, !- X,Y,Z Vertex 1 {m}
  -147.626337448705, 104.286796494434, 0, !- X,Y,Z Vertex 2 {m}
  -147.207505127758, 111.838865556537, 0, !- X,Y,Z Vertex 3 {m}
  -147.207505127758, 111.838865556537, 12; !- X,Y,Z Vertex 4 {m}

Shading:Building:Detailed,
  Shading Surface 48,                     !- Name
  ,                                       !- Transmittance Schedule Name
  ,                                       !- Number of Vertices
  -207.748529606094, 109.952324620204, 12, !- X,Y,Z Vertex 1 {m}
  -207.748529606094, 109.952324620204, 0, !- X,Y,Z Vertex 2 {m}
  -209.842973329041, 73.6357774552519, 0, !- X,Y,Z Vertex 3 {m}
  -209.842973329041, 73.6357774552519, 12; !- X,Y,Z Vertex 4 {m}

Shading:Building:Detailed,
  Shading Surface 49,                     !- Name
  ,                                       !- Transmittance Schedule Name
  ,                                       !- Number of Vertices
  -199.877376257778, 109.507864019565, 12, !- X,Y,Z Vertex 1 {m}
  -199.877376257778, 109.507864019565, 0, !- X,Y,Z Vertex 2 {m}
  -207.748529606094, 109.952324620204, 0, !- X,Y,Z Vertex 3 {m}
  -207.748529606094, 109.952324620204, 12; !- X,Y,Z Vertex 4 {m}

Shading:Building:Detailed,
  Shading Surface 50,                     !- Name
  ,                                       !- Transmittance Schedule Name
  ,                                       !- Number of Vertices
  -199.542286649737, 114.838733123597, 12, !- X,Y,Z Vertex 1 {m}
  -199.877376257778, 109.507864019565, 12, !- X,Y,Z Vertex 2 {m}
  -207.748529606094, 109.952324620204, 12, !- X,Y,Z Vertex 3 {m}
  -209.842973329041, 73.6357774552519, 12, !- X,Y,Z Vertex 4 {m}
  -140.676931045598, 69.6359510043806, 12, !- X,Y,Z Vertex 5 {m}
  -138.666610039309, 103.731320199241, 12, !- X,Y,Z Vertex 6 {m}
  -147.626337448705, 104.286796494434, 12, !- X,Y,Z Vertex 7 {m}
  -147.207505127758, 111.838865556537, 12; !- X,Y,Z Vertex 8 {m}

Shading:Building:Detailed,
  Shading Surface 51,                     !- Name
  ,                                       !- Transmittance Schedule Name
  ,                                       !- Number of Vertices
  -140.676931045598, 69.6359510043806, 12, !- X,Y,Z Vertex 1 {m}
  -140.676931045598, 69.6359510043806, 0, !- X,Y,Z Vertex 2 {m}
  -138.666610039309, 103.731320199241, 0, !- X,Y,Z Vertex 3 {m}
  -138.666610039309, 103.731320199241, 12; !- X,Y,Z Vertex 4 {m}

Shading:Building:Detailed,
  Shading Surface 52,                     !- Name
  ,                                       !- Transmittance Schedule Name
  ,                                       !- Number of Vertices
  -138.666610039309, 103.731320199241, 12, !- X,Y,Z Vertex 1 {m}
  -138.666610039309, 103.731320199241, 0, !- X,Y,Z Vertex 2 {m}
  -147.626337448705, 104.286796494434, 0, !- X,Y,Z Vertex 3 {m}
  -147.626337448705, 104.286796494434, 12; !- X,Y,Z Vertex 4 {m}

Shading:Building:Detailed,
  Shading Surface 53,                     !- Name
  ,                                       !- Transmittance Schedule Name
  ,                                       !- Number of Vertices
  -209.842973329041, 73.6357774552519, 12, !- X,Y,Z Vertex 1 {m}
  -209.842973329041, 73.6357774552519, 0, !- X,Y,Z Vertex 2 {m}
  -140.676931045598, 69.6359510043806, 0, !- X,Y,Z Vertex 3 {m}
  -140.676931045598, 69.6359510043806, 12; !- X,Y,Z Vertex 4 {m}

Shading:Building:Detailed,
  Shading Surface 54,                     !- Name
  ,                                       !- Transmittance Schedule Name
  ,                                       !- Number of Vertices
  -199.542286649737, 114.838733123597, 12, !- X,Y,Z Vertex 1 {m}
  -199.542286649737, 114.838733123597, 0, !- X,Y,Z Vertex 2 {m}
  -199.877376257778, 109.507864019565, 0, !- X,Y,Z Vertex 3 {m}
  -199.877376257778, 109.507864019565, 12; !- X,Y,Z Vertex 4 {m}

Shading:Building:Detailed,
  Shading Surface 55,                     !- Name
  ,                                       !- Transmittance Schedule Name
  ,                                       !- Number of Vertices
  -147.207505127758, 111.838865556537, 12, !- X,Y,Z Vertex 1 {m}
  -147.207505127758, 111.838865556537, 0, !- X,Y,Z Vertex 2 {m}
  -199.542286649737, 114.838733123597, 0, !- X,Y,Z Vertex 3 {m}
  -199.542286649737, 114.838733123597, 12; !- X,Y,Z Vertex 4 {m}

Shading:Building:Detailed,
  Shading Surface 56,                     !- Name
  ,                                       !- Transmittance Schedule Name
  ,                                       !- Number of Vertices
  -79.2986376759439, 33.7626568725159, 12, !- X,Y,Z Vertex 1 {m}
  -79.2986376759439, 33.7626568725159, 0, !- X,Y,Z Vertex 2 {m}
  -80.3036472067847, 18.4363948374543, 0, !- X,Y,Z Vertex 3 {m}
  -80.3036472067847, 18.4363948374543, 12; !- X,Y,Z Vertex 4 {m}

Shading:Building:Detailed,
  Shading Surface 57,                     !- Name
  ,                                       !- Transmittance Schedule Name
  ,                                       !- Number of Vertices
  -63.0536684082422, 39.8707951155524, 12, !- X,Y,Z Vertex 1 {m}
  -63.4724135436408, 32.7629618614665, 12, !- X,Y,Z Vertex 2 {m}
  -79.2986376759439, 33.7626568725159, 12, !- X,Y,Z Vertex 3 {m}
  -80.3036472067847, 18.4363948374543, 12, !- X,Y,Z Vertex 4 {m}
  -26.1259117993776, 15.1041996914063, 12, !- X,Y,Z Vertex 5 {m}
  -25.2047550922696, 29.7641097255793, 12, !- X,Y,Z Vertex 6 {m}
  -44.2129848884678, 30.9858599619028, 12, !- X,Y,Z Vertex 7 {m}
  -43.7942551420969, 38.6489940664114, 12; !- X,Y,Z Vertex 8 {m}

Shading:Building:Detailed,
  Shading Surface 58,                     !- Name
  ,                                       !- Transmittance Schedule Name
  ,                                       !- Number of Vertices
  -80.3036472067847, 18.4363948374543, 12, !- X,Y,Z Vertex 1 {m}
  -80.3036472067847, 18.4363948374543, 0, !- X,Y,Z Vertex 2 {m}
  -26.1259117993776, 15.1041996914063, 0, !- X,Y,Z Vertex 3 {m}
  -26.1259117993776, 15.1041996914063, 12; !- X,Y,Z Vertex 4 {m}

Shading:Building:Detailed,
  Shading Surface 59,                     !- Name
  ,                                       !- Transmittance Schedule Name
  ,                                       !- Number of Vertices
  -63.4724135436408, 32.7629618614665, 12, !- X,Y,Z Vertex 1 {m}
  -63.4724135436408, 32.7629618614665, 0, !- X,Y,Z Vertex 2 {m}
  -79.2986376759439, 33.7626568725159, 0, !- X,Y,Z Vertex 3 {m}
  -79.2986376759439, 33.7626568725159, 12; !- X,Y,Z Vertex 4 {m}

Shading:Building:Detailed,
  Shading Surface 60,                     !- Name
  ,                                       !- Transmittance Schedule Name
  ,                                       !- Number of Vertices
  -25.2047550922696, 29.7641097255793, 12, !- X,Y,Z Vertex 1 {m}
  -25.2047550922696, 29.7641097255793, 0, !- X,Y,Z Vertex 2 {m}
  -44.2129848884678, 30.9858599619028, 0, !- X,Y,Z Vertex 3 {m}
  -44.2129848884678, 30.9858599619028, 12; !- X,Y,Z Vertex 4 {m}

Shading:Building:Detailed,
  Shading Surface 61,                     !- Name
  ,                                       !- Transmittance Schedule Name
  ,                                       !- Number of Vertices
  -26.1259117993776, 15.1041996914063, 12, !- X,Y,Z Vertex 1 {m}
  -26.1259117993776, 15.1041996914063, 0, !- X,Y,Z Vertex 2 {m}
  -25.2047550922696, 29.7641097255793, 0, !- X,Y,Z Vertex 3 {m}
  -25.2047550922696, 29.7641097255793, 12; !- X,Y,Z Vertex 4 {m}

Shading:Building:Detailed,
  Shading Surface 62,                     !- Name
  ,                                       !- Transmittance Schedule Name
  ,                                       !- Number of Vertices
  -63.0536684082422, 39.8707951155524, 12, !- X,Y,Z Vertex 1 {m}
  -63.0536684082422, 39.8707951155524, 0, !- X,Y,Z Vertex 2 {m}
  -63.4724135436408, 32.7629618614665, 0, !- X,Y,Z Vertex 3 {m}
  -63.4724135436408, 32.7629618614665, 12; !- X,Y,Z Vertex 4 {m}

Shading:Building:Detailed,
  Shading Surface 63,                     !- Name
  ,                                       !- Transmittance Schedule Name
  ,                                       !- Number of Vertices
  -43.7942551420969, 38.6489940664114, 12, !- X,Y,Z Vertex 1 {m}
  -43.7942551420969, 38.6489940664114, 0, !- X,Y,Z Vertex 2 {m}
  -63.0536684082422, 39.8707951155524, 0, !- X,Y,Z Vertex 3 {m}
  -63.0536684082422, 39.8707951155524, 12; !- X,Y,Z Vertex 4 {m}

Shading:Building:Detailed,
  Shading Surface 64,                     !- Name
  ,                                       !- Transmittance Schedule Name
  ,                                       !- Number of Vertices
  -44.2129848884678, 30.9858599619028, 12, !- X,Y,Z Vertex 1 {m}
  -44.2129848884678, 30.9858599619028, 0, !- X,Y,Z Vertex 2 {m}
  -43.7942551420969, 38.6489940664114, 0, !- X,Y,Z Vertex 3 {m}
  -43.7942551420969, 38.6489940664114, 12; !- X,Y,Z Vertex 4 {m}

Shading:Building:Detailed,
  Shading Surface 65,                     !- Name
  ,                                       !- Transmittance Schedule Name
  ,                                       !- Number of Vertices
  -43.7942551420969, 38.6489940664114, 0, !- X,Y,Z Vertex 1 {m}
  -44.2129848884678, 30.9858599619028, 0, !- X,Y,Z Vertex 2 {m}
  -25.2047550922696, 29.7641097255793, 0, !- X,Y,Z Vertex 3 {m}
  -26.1259117993776, 15.1041996914063, 0, !- X,Y,Z Vertex 4 {m}
  -80.3036472067847, 18.4363948374543, 0, !- X,Y,Z Vertex 5 {m}
  -79.2986376759439, 33.7626568725159, 0, !- X,Y,Z Vertex 6 {m}
  -63.4724135436408, 32.7629618614665, 0, !- X,Y,Z Vertex 7 {m}
  -63.0536684082422, 39.8707951155524, 0; !- X,Y,Z Vertex 8 {m}

Shading:Building:Detailed,
  Shading Surface 66,                     !- Name
  ,                                       !- Transmittance Schedule Name
  ,                                       !- Number of Vertices
  -266.194123302863, 164.484675238001, 12, !- X,Y,Z Vertex 1 {m}
  -266.194123302863, 164.484675238001, 0, !- X,Y,Z Vertex 2 {m}
  -244.590504081476, 162.818016437145, 0, !- X,Y,Z Vertex 3 {m}
  -244.590504081476, 162.818016437145, 12; !- X,Y,Z Vertex 4 {m}

Shading:Building:Detailed,
  Shading Surface 67,                     !- Name
  ,                                       !- Transmittance Schedule Name
  ,                                       !- Number of Vertices
  -224.407691691578, 248.000370653304, 12, !- X,Y,Z Vertex 1 {m}
  -224.407691691578, 248.000370653304, 0, !- X,Y,Z Vertex 2 {m}
  -258.571159805145, 250.555885623149, 0, !- X,Y,Z Vertex 3 {m}
  -258.571159805145, 250.555885623149, 12; !- X,Y,Z Vertex 4 {m}

Shading:Building:Detailed,
  Shading Surface 68,                     !- Name
  ,                                       !- Transmittance Schedule Name
  ,                                       !- Number of Vertices
  -223.403396676655, 231.230281677575, 12, !- X,Y,Z Vertex 1 {m}
  -223.403396676655, 231.230281677575, 0, !- X,Y,Z Vertex 2 {m}
  -222.56571247174, 242.336254623476, 0,  !- X,Y,Z Vertex 3 {m}
  -222.56571247174, 242.336254623476, 12; !- X,Y,Z Vertex 4 {m}

Shading:Building:Detailed,
  Shading Surface 69,                     !- Name
  ,                                       !- Transmittance Schedule Name
  ,                                       !- Number of Vertices
  -237.722361651575, 219.569437581891, 12, !- X,Y,Z Vertex 1 {m}
  -237.722361651575, 219.569437581891, 0, !- X,Y,Z Vertex 2 {m}
  -231.107265818353, 221.679363898182, 0, !- X,Y,Z Vertex 3 {m}
  -231.107265818353, 221.679363898182, 12; !- X,Y,Z Vertex 4 {m}

Shading:Building:Detailed,
  Shading Surface 70,                     !- Name
  ,                                       !- Transmittance Schedule Name
  ,                                       !- Number of Vertices
  -261.502743451921, 225.900673458968, 12, !- X,Y,Z Vertex 1 {m}
  -261.502743451921, 225.900673458968, 0, !- X,Y,Z Vertex 2 {m}
  -266.194123302863, 164.484675238001, 0, !- X,Y,Z Vertex 3 {m}
  -266.194123302863, 164.484675238001, 12; !- X,Y,Z Vertex 4 {m}

Shading:Building:Detailed,
  Shading Surface 71,                     !- Name
  ,                                       !- Transmittance Schedule Name
  ,                                       !- Number of Vertices
  -260.079118383672, 229.787721844276, 12, !- X,Y,Z Vertex 1 {m}
  -260.079118383672, 229.787721844276, 0, !- X,Y,Z Vertex 2 {m}
  -262.507444735896, 229.010389257226, 0, !- X,Y,Z Vertex 3 {m}
  -262.507444735896, 229.010389257226, 12; !- X,Y,Z Vertex 4 {m}

Shading:Building:Detailed,
  Shading Surface 72,                     !- Name
  ,                                       !- Transmittance Schedule Name
  ,                                       !- Number of Vertices
  -222.56571247174, 242.336254623476, 12, !- X,Y,Z Vertex 1 {m}
  -222.56571247174, 242.336254623476, 0,  !- X,Y,Z Vertex 2 {m}
  -224.407691691578, 248.000370653304, 0, !- X,Y,Z Vertex 3 {m}
  -224.407691691578, 248.000370653304, 12; !- X,Y,Z Vertex 4 {m}

Shading:Building:Detailed,
  Shading Surface 73,                     !- Name
  ,                                       !- Transmittance Schedule Name
  ,                                       !- Number of Vertices
  -226.166763434797, 227.010087713298, 12, !- X,Y,Z Vertex 1 {m}
  -226.166763434797, 227.010087713298, 0, !- X,Y,Z Vertex 2 {m}
  -225.915453038885, 230.452939435144, 0, !- X,Y,Z Vertex 3 {m}
  -225.915453038885, 230.452939435144, 12; !- X,Y,Z Vertex 4 {m}

Shading:Building:Detailed,
  Shading Surface 74,                     !- Name
  ,                                       !- Transmittance Schedule Name
  ,                                       !- Number of Vertices
  -226.168432877982, 173.368117360605, 12, !- X,Y,Z Vertex 1 {m}
  -226.168432877982, 173.368117360605, 0, !- X,Y,Z Vertex 2 {m}
  -235.12718378626, 201.244456139839, 0,  !- X,Y,Z Vertex 3 {m}
  -235.12718378626, 201.244456139839, 12; !- X,Y,Z Vertex 4 {m}

Shading:Building:Detailed,
  Shading Surface 75,                     !- Name
  ,                                       !- Transmittance Schedule Name
  ,                                       !- Number of Vertices
  -231.107265818353, 221.679363898182, 12, !- X,Y,Z Vertex 1 {m}
  -231.107265818353, 221.679363898182, 0, !- X,Y,Z Vertex 2 {m}
  -230.772204313504, 225.566452697217, 0, !- X,Y,Z Vertex 3 {m}
  -230.772204313504, 225.566452697217, 12; !- X,Y,Z Vertex 4 {m}

Shading:Building:Detailed,
  Shading Surface 76,                     !- Name
  ,                                       !- Transmittance Schedule Name
  ,                                       !- Number of Vertices
  -241.742210721546, 201.799973073293, 12, !- X,Y,Z Vertex 1 {m}
  -241.742210721546, 201.799973073293, 0, !- X,Y,Z Vertex 2 {m}
  -240.988255499917, 212.128526294746, 0, !- X,Y,Z Vertex 3 {m}
  -240.988255499917, 212.128526294746, 12; !- X,Y,Z Vertex 4 {m}

Shading:Building:Detailed,
  Shading Surface 77,                     !- Name
  ,                                       !- Transmittance Schedule Name
  ,                                       !- Number of Vertices
  -230.772204313504, 225.566452697217, 12, !- X,Y,Z Vertex 1 {m}
  -230.772204313504, 225.566452697217, 0, !- X,Y,Z Vertex 2 {m}
  -226.166763434797, 227.010087713298, 0, !- X,Y,Z Vertex 3 {m}
  -226.166763434797, 227.010087713298, 12; !- X,Y,Z Vertex 4 {m}

Shading:Building:Detailed,
  Shading Surface 78,                     !- Name
  ,                                       !- Transmittance Schedule Name
  ,                                       !- Number of Vertices
  -244.590504081476, 162.818016437145, 12, !- X,Y,Z Vertex 1 {m}
  -244.590504081476, 162.818016437145, 0, !- X,Y,Z Vertex 2 {m}
  -244.422936572397, 165.705570119975, 0, !- X,Y,Z Vertex 3 {m}
  -244.422936572397, 165.705570119975, 12; !- X,Y,Z Vertex 4 {m}

Shading:Building:Detailed,
  Shading Surface 79,                     !- Name
  ,                                       !- Transmittance Schedule Name
  ,                                       !- Number of Vertices
  -240.988255499917, 212.128526294746, 12, !- X,Y,Z Vertex 1 {m}
  -240.988255499917, 212.128526294746, 0, !- X,Y,Z Vertex 2 {m}
  -238.30875473285, 211.906317971907, 0,  !- X,Y,Z Vertex 3 {m}
  -238.30875473285, 211.906317971907, 12; !- X,Y,Z Vertex 4 {m}

Shading:Building:Detailed,
  Shading Surface 80,                     !- Name
  ,                                       !- Transmittance Schedule Name
  ,                                       !- Number of Vertices
  -224.407691691578, 248.000370653304, 0, !- X,Y,Z Vertex 1 {m}
  -222.56571247174, 242.336254623476, 0,  !- X,Y,Z Vertex 2 {m}