
Version,
  22.2;                                   !- Version Identifier

Timestep,
  1;                                      !- Number of Timesteps per Hour

LifeCycleCost:Parameters,
  Life Cycle Cost Parameters,             !- Name
  EndOfYear,                              !- Discounting Convention
  ConstantDollar,                         !- Inflation Approach
  0.03,                                   !- Real Discount Rate
  ,                                       !- Nominal Discount Rate
  ,                                       !- Inflation
  ,                                       !- Base Date Month
  2011,                                   !- Base Date Year
  ,                                       !- Service Date Month
  2011,                                   !- Service Date Year
  25,                                     !- Length of Study Period in Years
  ,                                       !- Tax rate
  None;                                   !- Depreciation Method

LifeCycleCost:UsePriceEscalation,
  U.S. Avg  Commercial-Electricity,       !- Name
  Electricity,                            !- Resource
  2011,                                   !- Escalation Start Year
  January,                                !- Escalation Start Month
  0.9838,                                 !- Year Escalation 1
  0.9730,                                 !- Year Escalation 2
  0.9632,                                 !- Year Escalation 3
  0.9611,                                 !- Year Escalation 4
  0.9571,                                 !- Year Escalation 5
  0.9553,                                 !- Year Escalation 6
  0.9539,                                 !- Year Escalation 7
  0.9521,                                 !- Year Escalation 8
  0.9546,                                 !- Year Escalation 9
  0.9550,                                 !- Year Escalation 10
  0.9553,                                 !- Year Escalation 11
  0.9564,                                 !- Year Escalation 12
  0.9575,                                 !- Year Escalation 13
  0.9596,                                 !- Year Escalation 14
  0.9618,                                 !- Year Escalation 15
  0.9614,                                 !- Year Escalation 16
  0.9618,                                 !- Year Escalation 17
  0.9618,                                 !- Year Escalation 18
  0.9593,                                 !- Year Escalation 19
  0.9589,                                 !- Year Escalation 20
  0.9607,                                 !- Year Escalation 21
  0.9625,                                 !- Year Escalation 22
  0.9650,                                 !- Year Escalation 23
  0.9708,                                 !- Year Escalation 24
  0.9751,                                 !- Year Escalation 25
  0.9762,                                 !- Year Escalation 26
  0.9766,                                 !- Year Escalation 27
  0.9766,                                 !- Year Escalation 28
  0.9769,                                 !- Year Escalation 29
  0.9773;                                 !- Year Escalation 30

LifeCycleCost:UsePriceEscalation,
  U.S. Avg  Commercial-Distillate Oil,    !- Name
  FuelOilNo1,                             !- Resource
  2011,                                   !- Escalation Start Year
  January,                                !- Escalation Start Month
  0.9714,                                 !- Year Escalation 1
  0.9730,                                 !- Year Escalation 2
  0.9942,                                 !- Year Escalation 3
  1.0164,                                 !- Year Escalation 4
  1.0541,                                 !- Year Escalation 5
  1.0928,                                 !- Year Escalation 6
  1.1267,                                 !- Year Escalation 7
  1.1580,                                 !- Year Escalation 8
  1.1792,                                 !- Year Escalation 9
  1.1967,                                 !- Year Escalation 10
  1.2200,                                 !- Year Escalation 11
  1.2333,                                 !- Year Escalation 12
  1.2566,                                 !- Year Escalation 13
  1.2709,                                 !- Year Escalation 14
  1.2826,                                 !- Year Escalation 15
  1.2985,                                 !- Year Escalation 16
  1.3102,                                 !- Year Escalation 17
  1.3250,                                 !- Year Escalation 18
  1.3261,                                 !- Year Escalation 19
  1.3282,                                 !- Year Escalation 20
  1.3324,                                 !- Year Escalation 21
  1.3356,                                 !- Year Escalation 22
  1.3431,                                 !- Year Escalation 23
  1.3510,                                 !- Year Escalation 24
  1.3568,                                 !- Year Escalation 25
  1.3606,                                 !- Year Escalation 26
  1.3637,                                 !- Year Escalation 27
  1.3674,                                 !- Year Escalation 28
  1.3706,                                 !- Year Escalation 29
  1.3743;                                 !- Year Escalation 30

LifeCycleCost:UsePriceEscalation,
  U.S. Avg  Commercial-Residual Oil,      !- Name
  FuelOilNo2,                             !- Resource
  2011,                                   !- Escalation Start Year
  January,                                !- Escalation Start Month
  0.8469,                                 !- Year Escalation 1
  0.8257,                                 !- Year Escalation 2
  0.8681,                                 !- Year Escalation 3
  0.8988,                                 !- Year Escalation 4
  0.9289,                                 !- Year Escalation 5
  0.9604,                                 !- Year Escalation 6
  0.9897,                                 !- Year Escalation 7
  1.0075,                                 !- Year Escalation 8
  1.0314,                                 !- Year Escalation 9
  1.0554,                                 !- Year Escalation 10
  1.0861,                                 !- Year Escalation 11
  1.1278,                                 !- Year Escalation 12
  1.1497,                                 !- Year Escalation 13
  1.1620,                                 !- Year Escalation 14
  1.1743,                                 !- Year Escalation 15
  1.1852,                                 !- Year Escalation 16
  1.1948,                                 !- Year Escalation 17
  1.2037,                                 !- Year Escalation 18
  1.2071,                                 !- Year Escalation 19
  1.2119,                                 !- Year Escalation 20
  1.2139,                                 !- Year Escalation 21
  1.2194,                                 !- Year Escalation 22
  1.2276,                                 !- Year Escalation 23
  1.2365,                                 !- Year Escalation 24
  1.2420,                                 !- Year Escalation 25
  1.2461,                                 !- Year Escalation 26
  1.2509,                                 !- Year Escalation 27
  1.2550,                                 !- Year Escalation 28
  1.2591,                                 !- Year Escalation 29
  1.2638;                                 !- Year Escalation 30

LifeCycleCost:UsePriceEscalation,
  U.S. Avg  Commercial-Natural gas,       !- Name
  NaturalGas,                             !- Resource
  2011,                                   !- Escalation Start Year
  January,                                !- Escalation Start Month
  0.9823,                                 !- Year Escalation 1
  0.9557,                                 !- Year Escalation 2
  0.9279,                                 !- Year Escalation 3
  0.9257,                                 !- Year Escalation 4
  0.9346,                                 !- Year Escalation 5
  0.9412,                                 !- Year Escalation 6
  0.9512,                                 !- Year Escalation 7
  0.9645,                                 !- Year Escalation 8
  0.9856,                                 !- Year Escalation 9
  1.0067,                                 !- Year Escalation 10
  1.0222,                                 !- Year Escalation 11
  1.0410,                                 !- Year Escalation 12
  1.0610,                                 !- Year Escalation 13
  1.0787,                                 !- Year Escalation 14
  1.0942,                                 !- Year Escalation 15
  1.1098,                                 !- Year Escalation 16
  1.1220,                                 !- Year Escalation 17
  1.1308,                                 !- Year Escalation 18
  1.1386,                                 !- Year Escalation 19
  1.1486,                                 !- Year Escalation 20
  1.1619,                                 !- Year Escalation 21
  1.1763,                                 !- Year Escalation 22
  1.1918,                                 !- Year Escalation 23
  1.2118,                                 !- Year Escalation 24
  1.2284,                                 !- Year Escalation 25
  1.2439,                                 !- Year Escalation 26
  1.2605,                                 !- Year Escalation 27
  1.2772,                                 !- Year Escalation 28
  1.2938,                                 !- Year Escalation 29
  1.3115;                                 !- Year Escalation 30

LifeCycleCost:UsePriceEscalation,
  U.S. Avg  Commercial-Coal,              !- Name
  Coal,                                   !- Resource
  2011,                                   !- Escalation Start Year
  January,                                !- Escalation Start Month
  0.9970,                                 !- Year Escalation 1
  1.0089,                                 !- Year Escalation 2
  1.0089,                                 !- Year Escalation 3
  0.9941,                                 !- Year Escalation 4
  0.9941,                                 !- Year Escalation 5
  1.0000,                                 !- Year Escalation 6
  1.0030,                                 !- Year Escalation 7
  1.0059,                                 !- Year Escalation 8
  1.0089,                                 !- Year Escalation 9
  1.0119,                                 !- Year Escalation 10
  1.0148,                                 !- Year Escalation 11
  1.0178,                                 !- Year Escalation 12
  1.0208,                                 !- Year Escalation 13
  1.0267,                                 !- Year Escalation 14
  1.0297,                                 !- Year Escalation 15
  1.0356,                                 !- Year Escalation 16
  1.0415,                                 !- Year Escalation 17
  1.0534,                                 !- Year Escalation 18
  1.0564,                                 !- Year Escalation 19
  1.0593,                                 !- Year Escalation 20
  1.0653,                                 !- Year Escalation 21
  1.0712,                                 !- Year Escalation 22
  1.0742,                                 !- Year Escalation 23
  1.0801,                                 !- Year Escalation 24
  1.0831,                                 !- Year Escalation 25
  1.0831,                                 !- Year Escalation 26
  1.0861,                                 !- Year Escalation 27
  1.0890,                                 !- Year Escalation 28
  1.0920,                                 !- Year Escalation 29
  1.0950;                                 !- Year Escalation 30

Building,
  bld_20,                                 !- Name
  ,                                       !- North Axis {deg}
  City,                                   !- Terrain
  ,                                       !- Loads Convergence Tolerance Value {W}
  ,                                       !- Temperature Convergence Tolerance Value {deltaC}
  ,                                       !- Solar Distribution
  ,                                       !- Maximum Number of Warmup Days
  ;                                       !- Minimum Number of Warmup Days

Shading:Building:Detailed,
  Shading Surface 1,                      !- Name
  ,                                       !- Transmittance Schedule Name
  ,                                       !- Number of Vertices
  116.723911076887, -21.7668240280621, 12, !- X,Y,Z Vertex 1 {m}
  116.723911076887, -21.7668240280621, 0, !- X,Y,Z Vertex 2 {m}
  125.348421965783, -21.9888003881644, 0, !- X,Y,Z Vertex 3 {m}
  125.348421965783, -21.9888003881644, 12; !- X,Y,Z Vertex 4 {m}

Shading:Building:Detailed,
  Shading Surface 2,                      !- Name
  ,                                       !- Transmittance Schedule Name
  ,                                       !- Number of Vertices
  117.309739628267, -2.99767336235391, 12, !- X,Y,Z Vertex 1 {m}
  116.723911076887, -21.7668240280621, 12, !- X,Y,Z Vertex 2 {m}
  125.348421965783, -21.9888003881644, 12, !- X,Y,Z Vertex 3 {m}
  125.93422826033, -3.21964903353869, 12; !- X,Y,Z Vertex 4 {m}

Shading:Building:Detailed,
  Shading Surface 3,                      !- Name
  ,                                       !- Transmittance Schedule Name
  ,                                       !- Number of Vertices
  125.93422826033, -3.21964903353869, 0,  !- X,Y,Z Vertex 1 {m}
  125.348421965783, -21.9888003881644, 0, !- X,Y,Z Vertex 2 {m}
  116.723911076887, -21.7668240280621, 0, !- X,Y,Z Vertex 3 {m}
  117.309739628267, -2.99767336235391, 0; !- X,Y,Z Vertex 4 {m}

Shading:Building:Detailed,
  Shading Surface 4,                      !- Name
  ,                                       !- Transmittance Schedule Name
  ,                                       !- Number of Vertices
  125.348421965783, -21.9888003881644, 12, !- X,Y,Z Vertex 1 {m}
  125.348421965783, -21.9888003881644, 0, !- X,Y,Z Vertex 2 {m}
  125.93422826033, -3.21964903353869, 0,  !- X,Y,Z Vertex 3 {m}
  125.93422826033, -3.21964903353869, 12; !- X,Y,Z Vertex 4 {m}

Shading:Building:Detailed,
  Shading Surface 5,                      !- Name
  ,                                       !- Transmittance Schedule Name
  ,                                       !- Number of Vertices
  117.309739628267, -2.99767336235391, 12, !- X,Y,Z Vertex 1 {m}
  117.309739628267, -2.99767336235391, 0, !- X,Y,Z Vertex 2 {m}
  116.723911076887, -21.7668240280621, 0, !- X,Y,Z Vertex 3 {m}
  116.723911076887, -21.7668240280621, 12; !- X,Y,Z Vertex 4 {m}

Shading:Building:Detailed,
  Shading Surface 6,                      !- Name
  ,                                       !- Transmittance Schedule Name
  ,                                       !- Number of Vertices
  125.93422826033, -3.21964903353869, 12, !- X,Y,Z Vertex 1 {m}
  125.93422826033, -3.21964903353869, 0,  !- X,Y,Z Vertex 2 {m}
  117.309739628267, -2.99767336235391, 0, !- X,Y,Z Vertex 3 {m}
  117.309739628267, -2.99767336235391, 12; !- X,Y,Z Vertex 4 {m}

Shading:Building:Detailed,
  Shading Surface 60,                     !- Name
  ,                                       !- Transmittance Schedule Name
  ,                                       !- Number of Vertices
  -80.3863177642509, -253.438446449731, 12, !- X,Y,Z Vertex 1 {m}
  -80.3863177642509, -253.438446449731, 0, !- X,Y,Z Vertex 2 {m}
  -80.7213199669659, -258.769321043362, 0, !- X,Y,Z Vertex 3 {m}
  -80.7213199669659, -258.769321043362, 12; !- X,Y,Z Vertex 4 {m}

Shading:Building:Detailed,
  Shading Surface 61,                     !- Name
  ,                                       !- Transmittance Schedule Name
  ,                                       !- Number of Vertices
  -90.686328881267, -294.641570958479, 12, !- X,Y,Z Vertex 1 {m}
  -90.686328881267, -294.641570958479, 0, !- X,Y,Z Vertex 2 {m}
  -21.5202210027073, -298.640263409861, 0, !- X,Y,Z Vertex 3 {m}
  -21.5202210027073, -298.640263409861, 12; !- X,Y,Z Vertex 4 {m}

Shading:Building:Detailed,
  Shading Surface 62,                     !- Name
  ,                                       !- Transmittance Schedule Name
  ,                                       !- Number of Vertices
  -28.0514870457996, -256.437455971506, 0, !- X,Y,Z Vertex 1 {m}
  -28.4701955424722, -263.989531894336, 0, !- X,Y,Z Vertex 2 {m}
  -19.5104590244668, -264.544861289432, 0, !- X,Y,Z Vertex 3 {m}
  -21.5202210027073, -298.640263409861, 0, !- X,Y,Z Vertex 4 {m}
  -90.686328881267, -294.641570958479, 0, !- X,Y,Z Vertex 5 {m}
  -88.5924806049526, -258.324989490609, 0, !- X,Y,Z Vertex 6 {m}
  -80.7213199669659, -258.769321043362, 0, !- X,Y,Z Vertex 7 {m}
  -80.3863177642509, -253.438446449731, 0; !- X,Y,Z Vertex 8 {m}

Shading:Building:Detailed,
  Shading Surface 63,                     !- Name
  ,                                       !- Transmittance Schedule Name
  ,                                       !- Number of Vertices
  -80.7213199669659, -258.769321043362, 12, !- X,Y,Z Vertex 1 {m}
  -80.7213199669659, -258.769321043362, 0, !- X,Y,Z Vertex 2 {m}
  -88.5924806049526, -258.324989490609, 0, !- X,Y,Z Vertex 3 {m}
  -88.5924806049526, -258.324989490609, 12; !- X,Y,Z Vertex 4 {m}

Shading:Building:Detailed,
  Shading Surface 64,                     !- Name
  ,                                       !- Transmittance Schedule Name
  ,                                       !- Number of Vertices
  -28.0514870457996, -256.437455971506, 12, !- X,Y,Z Vertex 1 {m}
  -28.0514870457996, -256.437455971506, 0, !- X,Y,Z Vertex 2 {m}
  -80.3863177642509, -253.438446449731, 0, !- X,Y,Z Vertex 3 {m}
  -80.3863177642509, -253.438446449731, 12; !- X,Y,Z Vertex 4 {m}

Shading:Building:Detailed,
  Shading Surface 65,                     !- Name
  ,                                       !- Transmittance Schedule Name
  ,                                       !- Number of Vertices
  -28.4701955424722, -263.989531894336, 12, !- X,Y,Z Vertex 1 {m}
  -28.4701955424722, -263.989531894336, 0, !- X,Y,Z Vertex 2 {m}
  -28.0514870457996, -256.437455971506, 0, !- X,Y,Z Vertex 3 {m}
  -28.0514870457996, -256.437455971506, 12; !- X,Y,Z Vertex 4 {m}

Shading:Building:Detailed,
  Shading Surface 66,                     !- Name
  ,                                       !- Transmittance Schedule Name
  ,                                       !- Number of Vertices
  -19.5104590244668, -264.544861289432, 12, !- X,Y,Z Vertex 1 {m}
  -19.5104590244668, -264.544861289432, 0, !- X,Y,Z Vertex 2 {m}
  -28.4701955424722, -263.989531894336, 0, !- X,Y,Z Vertex 3 {m}
  -28.4701955424722, -263.989531894336, 12; !- X,Y,Z Vertex 4 {m}

Shading:Building:Detailed,
  Shading Surface 67,                     !- Name
  ,                                       !- Transmittance Schedule Name
  ,                                       !- Number of Vertices
  -21.5202210027073, -298.640263409861, 12, !- X,Y,Z Vertex 1 {m}
  -21.5202210027073, -298.640263409861, 0, !- X,Y,Z Vertex 2 {m}
  -19.5104590244668, -264.544861289432, 0, !- X,Y,Z Vertex 3 {m}
  -19.5104590244668, -264.544861289432, 12; !- X,Y,Z Vertex 4 {m}

Shading:Building:Detailed,
  Shading Surface 68,                     !- Name
  ,                                       !- Transmittance Schedule Name
  ,                                       !- Number of Vertices
  -80.3863177642509, -253.438446449731, 12, !- X,Y,Z Vertex 1 {m}
  -80.7213199669659, -258.769321043362, 12, !- X,Y,Z Vertex 2 {m}
  -88.5924806049526, -258.324989490609, 12, !- X,Y,Z Vertex 3 {m}
  -90.686328881267, -294.641570958479, 12, !- X,Y,Z Vertex 4 {m}
  -21.5202210027073, -298.640263409861, 12, !- X,Y,Z Vertex 5 {m}
  -19.5104590244668, -264.544861289432, 12, !- X,Y,Z Vertex 6 {m}
  -28.4701955424722, -263.989531894336, 12, !- X,Y,Z Vertex 7 {m}
  -28.0514870457996, -256.437455971506, 12; !- X,Y,Z Vertex 8 {m}

Shading:Building:Detailed,
  Shading Surface 69,                     !- Name
  ,                                       !- Transmittance Schedule Name
  ,                                       !- Number of Vertices
  -88.5924806049526, -258.324989490609, 12, !- X,Y,Z Vertex 1 {m}
  -88.5924806049526, -258.324989490609, 0, !- X,Y,Z Vertex 2 {m}
  -90.686328881267, -294.641570958479, 0, !- X,Y,Z Vertex 3 {m}
  -90.686328881267, -294.641570958479, 12; !- X,Y,Z Vertex 4 {m}

Shading:Building:Detailed,
  Shading Surface 70,                     !- Name
  ,                                       !- Transmittance Schedule Name
  ,                                       !- Number of Vertices
  -107.01342365946, -194.909498775274, 12, !- X,Y,Z Vertex 1 {m}
  -107.01342365946, -194.909498775274, 0, !- X,Y,Z Vertex 2 {m}
  -115.972631640155, -167.033306875487, 0, !- X,Y,Z Vertex 3 {m}
  -115.972631640155, -167.033306875487, 12; !- X,Y,Z Vertex 4 {m}

Shading:Building:Detailed,
  Shading Surface 71,                     !- Name
  ,                                       !- Transmittance Schedule Name
  ,                                       !- Number of Vertices
  -139.417416199867, -117.72226173482, 12, !- X,Y,Z Vertex 1 {m}
  -140.925034254562, -138.490450243701, 12, !- X,Y,Z Vertex 2 {m}
  -143.353347862407, -139.267822642102, 12, !- X,Y,Z Vertex 3 {m}
  -142.348595589736, -142.377521969624, 12, !- X,Y,Z Vertex 4 {m}
  -147.038968445566, -203.793597101111, 12, !- X,Y,Z Vertex 5 {m}
  -125.435321887787, -205.459901720284, 12, !- X,Y,Z Vertex 6 {m}
  -125.267801723675, -202.572345291158, 12, !- X,Y,Z Vertex 7 {m}
  -107.68343589724, -203.794286849463, 12, !- X,Y,Z Vertex 8 {m}
  -107.01342365946, -194.909498775274, 12, !- X,Y,Z Vertex 9 {m}
  -115.972631640155, -167.033306875487, 12, !- X,Y,Z Vertex 10 {m}
  -122.587667686459, -166.477898393283, 12, !- X,Y,Z Vertex 11 {m}
  -121.833881815306, -156.149332810239, 12, !- X,Y,Z Vertex 12 {m}
  -119.154377403777, -156.371497203571, 12, !- X,Y,Z Vertex 13 {m}
  -118.568109969813, -148.708367978684, 12, !- X,Y,Z Vertex 14 {m}
  -111.953048729318, -146.598333209342, 12, !- X,Y,Z Vertex 15 {m}
  -111.618050958681, -142.711238916185, 12, !- X,Y,Z Vertex 16 {m}
  -107.012633748776, -141.26752839459, 12, !- X,Y,Z Vertex 17 {m}
  -106.761379803265, -137.824672551628, 12, !- X,Y,Z Vertex 18 {m}
  -104.249336185806, -137.047289124292, 12, !- X,Y,Z Vertex 19 {m}
  -103.41183407921, -125.941302440883, 12, !- X,Y,Z Vertex 20 {m}
  -105.253906171257, -120.277216607585, 12; !- X,Y,Z Vertex 21 {m}

Shading:Building:Detailed,
  Shading Surface 72,                     !- Name
  ,                                       !- Transmittance Schedule Name
  ,                                       !- Number of Vertices
  -103.41183407921, -125.941302440883, 12, !- X,Y,Z Vertex 1 {m}
  -103.41183407921, -125.941302440883, 0, !- X,Y,Z Vertex 2 {m}
  -105.253906171257, -120.277216607585, 0, !- X,Y,Z Vertex 3 {m}
  -105.253906171257, -120.277216607585, 12; !- X,Y,Z Vertex 4 {m}

Shading:Building:Detailed,
  Shading Surface 73,                     !- Name
  ,                                       !- Transmittance Schedule Name
  ,                                       !- Number of Vertices
  -121.833881815306, -156.149332810239, 12, !- X,Y,Z Vertex 1 {m}
  -121.833881815306, -156.149332810239, 0, !- X,Y,Z Vertex 2 {m}
  -119.154377403777, -156.371497203571, 0, !- X,Y,Z Vertex 3 {m}
  -119.154377403777, -156.371497203571, 12; !- X,Y,Z Vertex 4 {m}

Shading:Building:Detailed,
  Shading Surface 74,                     !- Name
  ,                                       !- Transmittance Schedule Name
  ,                                       !- Number of Vertices
  -119.154377403777, -156.371497203571, 12, !- X,Y,Z Vertex 1 {m}
  -119.154377403777, -156.371497203571, 0, !- X,Y,Z Vertex 2 {m}
  -118.568109969813, -148.708367978684, 0, !- X,Y,Z Vertex 3 {m}
  -118.568109969813, -148.708367978684, 12; !- X,Y,Z Vertex 4 {m}

Shading:Building:Detailed,
  Shading Surface 75,                     !- Name
  ,                                       !- Transmittance Schedule Name
  ,                                       !- Number of Vertices
  -107.68343589724, -203.794286849463, 12, !- X,Y,Z Vertex 1 {m}
  -107.68343589724, -203.794286849463, 0, !- X,Y,Z Vertex 2 {m}
  -107.01342365946, -194.909498775274, 0, !- X,Y,Z Vertex 3 {m}
  -107.01342365946, -194.909498775274, 12; !- X,Y,Z Vertex 4 {m}

Shading:Building:Detailed,
  Shading Surface 76,                     !- Name
  ,                                       !- Transmittance Schedule Name
  ,                                       !- Number of Vertices
  -140.925034254562, -138.490450243701, 12, !- X,Y,Z Vertex 1 {m}
  -140.925034254562, -138.490450243701, 0, !- X,Y,Z Vertex 2 {m}
  -143.353347862407, -139.267822642102, 0, !- X,Y,Z Vertex 3 {m}
  -143.353347862407, -139.267822642102, 12; !- X,Y,Z Vertex 4 {m}

Shading:Building:Detailed,
  Shading Surface 77,                     !- Name
  ,                                       !- Transmittance Schedule Name
  ,                                       !- Number of Vertices
  -105.253906171257, -120.277216607585, 12, !- X,Y,Z Vertex 1 {m}
  -105.253906171257, -120.277216607585, 0, !- X,Y,Z Vertex 2 {m}
  -139.417416199867, -117.72226173482, 0, !- X,Y,Z Vertex 3 {m}
  -139.417416199867, -117.72226173482, 12; !- X,Y,Z Vertex 4 {m}

Shading:Building:Detailed,
  Shading Surface 78,                     !- Name
  ,                                       !- Transmittance Schedule Name
  ,                                       !- Number of Vertices
  -125.267801723675, -202.572345291158, 12, !- X,Y,Z Vertex 1 {m}
  -125.267801723675, -202.572345291158, 0, !- X,Y,Z Vertex 2 {m}
  -107.68343589724, -203.794286849463, 0, !- X,Y,Z Vertex 3 {m}
  -107.68343589724, -203.794286849463, 12; !- X,Y,Z Vertex 4 {m}

Shading:Building:Detailed,
  Shading Surface 79,                     !- Name
  ,                                       !- Transmittance Schedule Name
  ,                                       !- Number of Vertices
  -111.953048729318, -146.598333209342, 12, !- X,Y,Z Vertex 1 {m}
  -111.953048729318, -146.598333209342, 0, !- X,Y,Z Vertex 2 {m}
  -111.618050958681, -142.711238916185, 0, !- X,Y,Z Vertex 3 {m}
  -111.618050958681, -142.711238916185, 12; !- X,Y,Z Vertex 4 {m}

Shading:Building:Detailed,
  Shading Surface 80,                     !- Name
  ,                                       !- Transmittance Schedule Name
  ,                                       !- Number of Vertices
  -104.249336185806, -137.047289124292, 12, !- X,Y,Z Vertex 1 {m}
  -104.249336185806, -137.047289124292, 0, !- X,Y,Z Vertex 2 {m}
  -103.41183407921, -125.941302440883, 0, !- X,Y,Z Vertex 3 {m}
  -103.41183407921, -125.941302440883, 12; !- X,Y,Z Vertex 4 {m}

Shading:Building:Detailed,
  Shading Surface 81,                     !- Name
  ,                                       !- Transmittance Schedule Name
  ,                                       !- Number of Vertices
  -118.568109969813, -148.708367978684, 12, !- X,Y,Z Vertex 1 {m}
  -118.568109969813, -148.708367978684, 0, !- X,Y,Z Vertex 2 {m}
  -111.953048729318, -146.598333209342, 0, !- X,Y,Z Vertex 3 {m}
  -111.953048729318, -146.598333209342, 12; !- X,Y,Z Vertex 4 {m}

Shading:Building:Detailed,
  Shading Surface 82,                     !- Name
  ,                                       !- Transmittance Schedule Name
  ,                                       !- Number of Vertices
  -147.038968445566, -203.793597101111, 12, !- X,Y,Z Vertex 1 {m}
  -147.038968445566, -203.793597101111, 0, !- X,Y,Z Vertex 2 {m}
  -125.435321887787, -205.459901720284, 0, !- X,Y,Z Vertex 3 {m}
  -125.435321887787, -205.459901720284, 12; !- X,Y,Z Vertex 4 {m}

Shading:Building:Detailed,
  Shading Surface 83,                     !- Name
  ,                                       !- Transmittance Schedule Name
  ,                                       !- Number of Vertices
  -106.761379803265, -137.824672551628, 12, !- X,Y,Z Vertex 1 {m}
  -106.761379803265, -137.824672551628, 0, !- X,Y,Z Vertex 2 {m}
  -104.249336185806, -137.047289124292, 0, !- X,Y,Z Vertex 3 {m}
  -104.249336185806, -137.047289124292, 12; !- X,Y,Z Vertex 4 {m}

Shading:Building:Detailed,
  Shading Surface 84,                     !- Name
  ,                                       !- Transmittance Schedule Name
  ,                                       !- Number of Vertices
  -143.353347862407, -139.267822642102, 12, !- X,Y,Z Vertex 1 {m}
  -143.353347862407, -139.267822642102, 0, !- X,Y,Z Vertex 2 {m}
  -142.348595589736, -142.377521969624, 0, !- X,Y,Z Vertex 3 {m}
  -142.348595589736, -142.377521969624, 12; !- X,Y,Z Vertex 4 {m}

Shading:Building:Detailed,
  Shading Surface 85,                     !- Name
  ,                                       !- Transmittance Schedule Name
  ,                                       !- Number of Vertices
  -142.348595589736, -142.377521969624, 12, !- X,Y,Z Vertex 1 {m}
  -142.348595589736, -142.377521969624, 0, !- X,Y,Z Vertex 2 {m}
  -147.038968445566, -203.793597101111, 0, !- X,Y,Z Vertex 3 {m}
  -147.038968445566, -203.793597101111, 12; !- X,Y,Z Vertex 4 {m}

Shading:Building:Detailed,
  Shading Surface 86,                     !- Name
  ,                                       !- Transmittance Schedule Name
  ,                                       !- Number of Vertices
  -139.417416199867, -117.72226173482, 12, !- X,Y,Z Vertex 1 {m}
  -139.417416199867, -117.72226173482, 0, !- X,Y,Z Vertex 2 {m}
  -140.925034254562, -138.490450243701, 0, !- X,Y,Z Vertex 3 {m}
  -140.925034254562, -138.490450243701, 12; !- X,Y,Z Vertex 4 {m}

Shading:Building:Detailed,
  Shading Surface 87,                     !- Name
  ,                                       !- Transmittance Schedule Name