    ConvergenceLimits,
      0,                       !- Minimum System Timestep {minutes}
      25;                      !- Maximum HVAC Iterations
    
Version,
  22.2;                                   !- Version Identifier

Timestep,
  1;                                      !- Number of Timesteps per Hour

LifeCycleCost:Parameters,
  Life Cycle Cost Parameters,             !- Name
  EndOfYear,                              !- Discounting Convention
  ConstantDollar,                         !- Inflation Approach
  0.03,                                   !- Real Discount Rate
  ,                                       !- Nominal Discount Rate
  ,                                       !- Inflation
  ,                                       !- Base Date Month
  2011,                                   !- Base Date Year
  ,                                       !- Service Date Month
  2011,                                   !- Service Date Year
  25,                                     !- Length of Study Period in Years
  ,                                       !- Tax rate
  None;                                   !- Depreciation Method

LifeCycleCost:UsePriceEscalation,
  U.S. Avg  Commercial-Electricity,       !- Name
  Electricity,                            !- Resource
  2011,                                   !- Escalation Start Year
  January,                                !- Escalation Start Month
  0.9838,                                 !- Year Escalation 1
  0.9730,                                 !- Year Escalation 2
  0.9632,                                 !- Year Escalation 3
  0.9611,                                 !- Year Escalation 4
  0.9571,                                 !- Year Escalation 5
  0.9553,                                 !- Year Escalation 6
  0.9539,                                 !- Year Escalation 7
  0.9521,                                 !- Year Escalation 8
  0.9546,                                 !- Year Escalation 9
  0.9550,                                 !- Year Escalation 10
  0.9553,                                 !- Year Escalation 11
  0.9564,                                 !- Year Escalation 12
  0.9575,                                 !- Year Escalation 13
  0.9596,                                 !- Year Escalation 14
  0.9618,                                 !- Year Escalation 15
  0.9614,                                 !- Year Escalation 16
  0.9618,                                 !- Year Escalation 17
  0.9618,                                 !- Year Escalation 18
  0.9593,                                 !- Year Escalation 19
  0.9589,                                 !- Year Escalation 20
  0.9607,                                 !- Year Escalation 21
  0.9625,                                 !- Year Escalation 22
  0.9650,                                 !- Year Escalation 23
  0.9708,                                 !- Year Escalation 24
  0.9751,                                 !- Year Escalation 25
  0.9762,                                 !- Year Escalation 26
  0.9766,                                 !- Year Escalation 27
  0.9766,                                 !- Year Escalation 28
  0.9769,                                 !- Year Escalation 29
  0.9773;                                 !- Year Escalation 30

LifeCycleCost:UsePriceEscalation,
  U.S. Avg  Commercial-Distillate Oil,    !- Name
  FuelOilNo1,                             !- Resource
  2011,                                   !- Escalation Start Year
  January,                                !- Escalation Start Month
  0.9714,                                 !- Year Escalation 1
  0.9730,                                 !- Year Escalation 2
  0.9942,                                 !- Year Escalation 3
  1.0164,                                 !- Year Escalation 4
  1.0541,                                 !- Year Escalation 5
  1.0928,                                 !- Year Escalation 6
  1.1267,                                 !- Year Escalation 7
  1.1580,                                 !- Year Escalation 8
  1.1792,                                 !- Year Escalation 9
  1.1967,                                 !- Year Escalation 10
  1.2200,                                 !- Year Escalation 11
  1.2333,                                 !- Year Escalation 12
  1.2566,                                 !- Year Escalation 13
  1.2709,                                 !- Year Escalation 14
  1.2826,                                 !- Year Escalation 15
  1.2985,                                 !- Year Escalation 16
  1.3102,                                 !- Year Escalation 17
  1.3250,                                 !- Year Escalation 18
  1.3261,                                 !- Year Escalation 19
  1.3282,                                 !- Year Escalation 20
  1.3324,                                 !- Year Escalation 21
  1.3356,                                 !- Year Escalation 22
  1.3431,                                 !- Year Escalation 23
  1.3510,                                 !- Year Escalation 24
  1.3568,                                 !- Year Escalation 25
  1.3606,                                 !- Year Escalation 26
  1.3637,                                 !- Year Escalation 27
  1.3674,                                 !- Year Escalation 28
  1.3706,                                 !- Year Escalation 29
  1.3743;                                 !- Year Escalation 30

LifeCycleCost:UsePriceEscalation,
  U.S. Avg  Commercial-Residual Oil,      !- Name
  FuelOilNo2,                             !- Resource
  2011,                                   !- Escalation Start Year
  January,                                !- Escalation Start Month
  0.8469,                                 !- Year Escalation 1
  0.8257,                                 !- Year Escalation 2
  0.8681,                                 !- Year Escalation 3
  0.8988,                                 !- Year Escalation 4
  0.9289,                                 !- Year Escalation 5
  0.9604,                                 !- Year Escalation 6
  0.9897,                                 !- Year Escalation 7
  1.0075,                                 !- Year Escalation 8
  1.0314,                                 !- Year Escalation 9
  1.0554,                                 !- Year Escalation 10
  1.0861,                                 !- Year Escalation 11
  1.1278,                                 !- Year Escalation 12
  1.1497,                                 !- Year Escalation 13
  1.1620,                                 !- Year Escalation 14
  1.1743,                                 !- Year Escalation 15
  1.1852,                                 !- Year Escalation 16
  1.1948,                                 !- Year Escalation 17
  1.2037,                                 !- Year Escalation 18
  1.2071,                                 !- Year Escalation 19
  1.2119,                                 !- Year Escalation 20
  1.2139,                                 !- Year Escalation 21
  1.2194,                                 !- Year Escalation 22
  1.2276,                                 !- Year Escalation 23
  1.2365,                                 !- Year Escalation 24
  1.2420,                                 !- Year Escalation 25
  1.2461,                                 !- Year Escalation 26
  1.2509,                                 !- Year Escalation 27
  1.2550,                                 !- Year Escalation 28
  1.2591,                                 !- Year Escalation 29
  1.2638;                                 !- Year Escalation 30

LifeCycleCost:UsePriceEscalation,
  U.S. Avg  Commercial-Natural gas,       !- Name
  NaturalGas,                             !- Resource
  2011,                                   !- Escalation Start Year
  January,                                !- Escalation Start Month
  0.9823,                                 !- Year Escalation 1
  0.9557,                                 !- Year Escalation 2
  0.9279,                                 !- Year Escalation 3
  0.9257,                                 !- Year Escalation 4
  0.9346,                                 !- Year Escalation 5
  0.9412,                                 !- Year Escalation 6
  0.9512,                                 !- Year Escalation 7
  0.9645,                                 !- Year Escalation 8
  0.9856,                                 !- Year Escalation 9
  1.0067,                                 !- Year Escalation 10
  1.0222,                                 !- Year Escalation 11
  1.0410,                                 !- Year Escalation 12
  1.0610,                                 !- Year Escalation 13
  1.0787,                                 !- Year Escalation 14
  1.0942,                                 !- Year Escalation 15
  1.1098,                                 !- Year Escalation 16
  1.1220,                                 !- Year Escalation 17
  1.1308,                                 !- Year Escalation 18
  1.1386,                                 !- Year Escalation 19
  1.1486,                                 !- Year Escalation 20
  1.1619,                                 !- Year Escalation 21
  1.1763,                                 !- Year Escalation 22
  1.1918,                                 !- Year Escalation 23
  1.2118,                                 !- Year Escalation 24
  1.2284,                                 !- Year Escalation 25
  1.2439,                                 !- Year Escalation 26
  1.2605,                                 !- Year Escalation 27
  1.2772,                                 !- Year Escalation 28
  1.2938,                                 !- Year Escalation 29
  1.3115;                                 !- Year Escalation 30

LifeCycleCost:UsePriceEscalation,
  U.S. Avg  Commercial-Coal,              !- Name
  Coal,                                   !- Resource
  2011,                                   !- Escalation Start Year
  January,                                !- Escalation Start Month
  0.9970,                                 !- Year Escalation 1
  1.0089,                                 !- Year Escalation 2
  1.0089,                                 !- Year Escalation 3
  0.9941,                                 !- Year Escalation 4
  0.9941,                                 !- Year Escalation 5
  1.0000,                                 !- Year Escalation 6
  1.0030,                                 !- Year Escalation 7
  1.0059,                                 !- Year Escalation 8
  1.0089,                                 !- Year Escalation 9
  1.0119,                                 !- Year Escalation 10
  1.0148,                                 !- Year Escalation 11
  1.0178,                                 !- Year Escalation 12
  1.0208,                                 !- Year Escalation 13
  1.0267,                                 !- Year Escalation 14
  1.0297,                                 !- Year Escalation 15
  1.0356,                                 !- Year Escalation 16
  1.0415,                                 !- Year Escalation 17
  1.0534,                                 !- Year Escalation 18
  1.0564,                                 !- Year Escalation 19
  1.0593,                                 !- Year Escalation 20
  1.0653,                                 !- Year Escalation 21
  1.0712,                                 !- Year Escalation 22
  1.0742,                                 !- Year Escalation 23
  1.0801,                                 !- Year Escalation 24
  1.0831,                                 !- Year Escalation 25
  1.0831,                                 !- Year Escalation 26
  1.0861,                                 !- Year Escalation 27
  1.0890,                                 !- Year Escalation 28
  1.0920,                                 !- Year Escalation 29
  1.0950;                                 !- Year Escalation 30

Building,
  bld_21,                                 !- Name
  ,                                       !- North Axis {deg}
  City,                                   !- Terrain
  ,                                       !- Loads Convergence Tolerance Value {W}
  ,                                       !- Temperature Convergence Tolerance Value {deltaC}
  ,                                       !- Solar Distribution
  ,                                       !- Maximum Number of Warmup Days
  ;                                       !- Minimum Number of Warmup Days

Shading:Building:Detailed,
  Shading Surface 1,                      !- Name
  ,                                       !- Transmittance Schedule Name
  ,                                       !- Number of Vertices
  45.3832125831713, -22.1008004313054, 0, !- X,Y,Z Vertex 1 {m}
  44.7971982355279, -40.8699452910139, 0, !- X,Y,Z Vertex 2 {m}
  36.1726898063552, -40.6478733295549, 0, !- X,Y,Z Vertex 3 {m}
  36.7587264108215, -21.8787291590111, 0; !- X,Y,Z Vertex 4 {m}

Shading:Building:Detailed,
  Shading Surface 2,                      !- Name
  ,                                       !- Transmittance Schedule Name
  ,                                       !- Number of Vertices
  44.7971982355279, -40.8699452910139, 12, !- X,Y,Z Vertex 1 {m}
  44.7971982355279, -40.8699452910139, 0, !- X,Y,Z Vertex 2 {m}
  45.3832125831713, -22.1008004313054, 0, !- X,Y,Z Vertex 3 {m}
  45.3832125831713, -22.1008004313054, 12; !- X,Y,Z Vertex 4 {m}

Shading:Building:Detailed,
  Shading Surface 3,                      !- Name
  ,                                       !- Transmittance Schedule Name
  ,                                       !- Number of Vertices
  36.1726898063552, -40.6478733295549, 12, !- X,Y,Z Vertex 1 {m}
  36.1726898063552, -40.6478733295549, 0, !- X,Y,Z Vertex 2 {m}
  44.7971982355279, -40.8699452910139, 0, !- X,Y,Z Vertex 3 {m}
  44.7971982355279, -40.8699452910139, 12; !- X,Y,Z Vertex 4 {m}

Shading:Building:Detailed,
  Shading Surface 4,                      !- Name
  ,                                       !- Transmittance Schedule Name
  ,                                       !- Number of Vertices
  36.7587264108215, -21.8787291590111, 12, !- X,Y,Z Vertex 1 {m}
  36.1726898063552, -40.6478733295549, 12, !- X,Y,Z Vertex 2 {m}
  44.7971982355279, -40.8699452910139, 12, !- X,Y,Z Vertex 3 {m}
  45.3832125831713, -22.1008004313054, 12; !- X,Y,Z Vertex 4 {m}

Shading:Building:Detailed,
  Shading Surface 5,                      !- Name
  ,                                       !- Transmittance Schedule Name
  ,                                       !- Number of Vertices
  36.7587264108215, -21.8787291590111, 12, !- X,Y,Z Vertex 1 {m}
  36.7587264108215, -21.8787291590111, 0, !- X,Y,Z Vertex 2 {m}
  36.1726898063552, -40.6478733295549, 0, !- X,Y,Z Vertex 3 {m}
  36.1726898063552, -40.6478733295549, 12; !- X,Y,Z Vertex 4 {m}

Shading:Building:Detailed,
  Shading Surface 6,                      !- Name
  ,                                       !- Transmittance Schedule Name
  ,                                       !- Number of Vertices
  45.3832125831713, -22.1008004313054, 12, !- X,Y,Z Vertex 1 {m}
  45.3832125831713, -22.1008004313054, 0, !- X,Y,Z Vertex 2 {m}
  36.7587264108215, -21.8787291590111, 0, !- X,Y,Z Vertex 3 {m}
  36.7587264108215, -21.8787291590111, 12; !- X,Y,Z Vertex 4 {m}

Shading:Building:Detailed,
  Shading Surface 53,                     !- Name
  ,                                       !- Transmittance Schedule Name
  ,                                       !- Number of Vertices
  -187.566564126537, -213.788067950685, 12, !- X,Y,Z Vertex 1 {m}
  -187.566564126537, -213.788067950685, 0, !- X,Y,Z Vertex 2 {m}
  -196.525463110181, -185.911776742679, 0, !- X,Y,Z Vertex 3 {m}
  -196.525463110181, -185.911776742679, 12; !- X,Y,Z Vertex 4 {m}

Shading:Building:Detailed,
  Shading Surface 54,                     !- Name
  ,                                       !- Transmittance Schedule Name
  ,                                       !- Number of Vertices
  -199.120738315139, -167.586809077667, 12, !- X,Y,Z Vertex 1 {m}
  -199.120738315139, -167.586809077667, 0, !- X,Y,Z Vertex 2 {m}
  -192.505653688249, -165.47684763627, 0, !- X,Y,Z Vertex 3 {m}
  -192.505653688249, -165.47684763627, 12; !- X,Y,Z Vertex 4 {m}

Shading:Building:Detailed,
  Shading Surface 55,                     !- Name
  ,                                       !- Transmittance Schedule Name
  ,                                       !- Number of Vertices
  -184.801835278121, -155.925888947766, 12, !- X,Y,Z Vertex 1 {m}
  -184.801835278121, -155.925888947766, 0, !- X,Y,Z Vertex 2 {m}
  -183.96421006635, -144.819911549438, 0, !- X,Y,Z Vertex 3 {m}
  -183.96421006635, -144.819911549438, 12; !- X,Y,Z Vertex 4 {m}

Shading:Building:Detailed,
  Shading Surface 56,                     !- Name
  ,                                       !- Transmittance Schedule Name
  ,                                       !- Number of Vertices
  -203.140492997551, -185.356294933162, 12, !- X,Y,Z Vertex 1 {m}
  -203.140492997551, -185.356294933162, 0, !- X,Y,Z Vertex 2 {m}
  -202.386592639236, -175.02773770726, 0, !- X,Y,Z Vertex 3 {m}
  -202.386592639236, -175.02773770726, 12; !- X,Y,Z Vertex 4 {m}

Shading:Building:Detailed,
  Shading Surface 57,                     !- Name
  ,                                       !- Transmittance Schedule Name
  ,                                       !- Number of Vertices
  -192.505653688249, -165.47684763627, 12, !- X,Y,Z Vertex 1 {m}
  -192.505653688249, -165.47684763627, 0, !- X,Y,Z Vertex 2 {m}
  -192.170612830934, -161.589757057065, 0, !- X,Y,Z Vertex 3 {m}
  -192.170612830934, -161.589757057065, 12; !- X,Y,Z Vertex 4 {m}

Shading:Building:Detailed,
  Shading Surface 58,                     !- Name
  ,                                       !- Transmittance Schedule Name
  ,                                       !- Number of Vertices
  -183.96421006635, -144.819911549438, 12, !- X,Y,Z Vertex 1 {m}
  -183.96421006635, -144.819911549438, 0, !- X,Y,Z Vertex 2 {m}
  -185.806219373514, -139.15580529756, 0, !- X,Y,Z Vertex 3 {m}
  -185.806219373514, -139.15580529756, 12; !- X,Y,Z Vertex 4 {m}

Shading:Building:Detailed,
  Shading Surface 59,                     !- Name
  ,                                       !- Transmittance Schedule Name
  ,                                       !- Number of Vertices
  -202.386592639236, -175.02773770726, 12, !- X,Y,Z Vertex 1 {m}
  -202.386592639236, -175.02773770726, 0, !- X,Y,Z Vertex 2 {m}
  -199.707090691316, -175.249931802755, 0, !- X,Y,Z Vertex 3 {m}
  -199.707090691316, -175.249931802755, 12; !- X,Y,Z Vertex 4 {m}

Shading:Building:Detailed,
  Shading Surface 60,                     !- Name
  ,                                       !- Transmittance Schedule Name
  ,                                       !- Number of Vertices
  -196.525463110181, -185.911776742679, 12, !- X,Y,Z Vertex 1 {m}
  -196.525463110181, -185.911776742679, 0, !- X,Y,Z Vertex 2 {m}
  -203.140492997551, -185.356294933162, 0, !- X,Y,Z Vertex 3 {m}
  -203.140492997551, -185.356294933162, 12; !- X,Y,Z Vertex 4 {m}

Shading:Building:Detailed,
  Shading Surface 61,                     !- Name
  ,                                       !- Transmittance Schedule Name
  ,                                       !- Number of Vertices
  -187.31388751168, -156.70324452912, 12, !- X,Y,Z Vertex 1 {m}
  -187.31388751168, -156.70324452912, 0,  !- X,Y,Z Vertex 2 {m}
  -184.801835278121, -155.925888947766, 0, !- X,Y,Z Vertex 3 {m}
  -184.801835278121, -155.925888947766, 12; !- X,Y,Z Vertex 4 {m}

Shading:Building:Detailed,
  Shading Surface 62,                     !- Name
  ,                                       !- Transmittance Schedule Name
  ,                                       !- Number of Vertices
  -192.170612830934, -161.589757057065, 12, !- X,Y,Z Vertex 1 {m}
  -192.170612830934, -161.589757057065, 0, !- X,Y,Z Vertex 2 {m}
  -187.565179619742, -160.146097586493, 0, !- X,Y,Z Vertex 3 {m}
  -187.565179619742, -160.146097586493, 12; !- X,Y,Z Vertex 4 {m}

Shading:Building:Detailed,
  Shading Surface 63,                     !- Name
  ,                                       !- Transmittance Schedule Name
  ,                                       !- Number of Vertices
  -205.821027122592, -221.450712116378, 12, !- X,Y,Z Vertex 1 {m}
  -205.821027122592, -221.450712116378, 0, !- X,Y,Z Vertex 2 {m}
  -188.236674847243, -222.672848596411, 0, !- X,Y,Z Vertex 3 {m}
  -188.236674847243, -222.672848596411, 12; !- X,Y,Z Vertex 4 {m}

Shading:Building:Detailed,
  Shading Surface 64,                     !- Name
  ,                                       !- Transmittance Schedule Name
  ,                                       !- Number of Vertices
  -205.988579293643, -224.338266688085, 12, !- X,Y,Z Vertex 1 {m}
  -205.988579293643, -224.338266688085, 0, !- X,Y,Z Vertex 2 {m}
  -205.821027122592, -221.450712116378, 0, !- X,Y,Z Vertex 3 {m}
  -205.821027122592, -221.450712116378, 12; !- X,Y,Z Vertex 4 {m}

Shading:Building:Detailed,
  Shading Surface 65,                     !- Name
  ,                                       !- Transmittance Schedule Name
  ,                                       !- Number of Vertices
  -227.592207372481, -222.671722593507, 12, !- X,Y,Z Vertex 1 {m}
  -227.592207372481, -222.671722593507, 0, !- X,Y,Z Vertex 2 {m}
  -205.988579293643, -224.338266688085, 0, !- X,Y,Z Vertex 3 {m}
  -205.988579293643, -224.338266688085, 12; !- X,Y,Z Vertex 4 {m}

Shading:Building:Detailed,
  Shading Surface 66,                     !- Name
  ,                                       !- Transmittance Schedule Name
  ,                                       !- Number of Vertices
  -222.90115375084, -161.255699463659, 12, !- X,Y,Z Vertex 1 {m}
  -222.90115375084, -161.255699463659, 0, !- X,Y,Z Vertex 2 {m}
  -227.592207372481, -222.671722593507, 0, !- X,Y,Z Vertex 3 {m}
  -227.592207372481, -222.671722593507, 12; !- X,Y,Z Vertex 4 {m}

Shading:Building:Detailed,
  Shading Surface 67,                     !- Name
  ,                                       !- Transmittance Schedule Name
  ,                                       !- Number of Vertices
  -187.565179619742, -160.146097586493, 12, !- X,Y,Z Vertex 1 {m}
  -187.565179619742, -160.146097586493, 0, !- X,Y,Z Vertex 2 {m}
  -187.31388751168, -156.70324452912, 0,  !- X,Y,Z Vertex 3 {m}
  -187.31388751168, -156.70324452912, 12; !- X,Y,Z Vertex 4 {m}

Shading:Building:Detailed,
  Shading Surface 68,                     !- Name
  ,                                       !- Transmittance Schedule Name
  ,                                       !- Number of Vertices
  -188.236674847243, -222.672848596411, 12, !- X,Y,Z Vertex 1 {m}
  -188.236674847243, -222.672848596411, 0, !- X,Y,Z Vertex 2 {m}
  -187.566564126537, -213.788067950685, 0, !- X,Y,Z Vertex 3 {m}
  -187.566564126537, -213.788067950685, 12; !- X,Y,Z Vertex 4 {m}

Shading:Building:Detailed,
  Shading Surface 69,                     !- Name
  ,                                       !- Transmittance Schedule Name
  ,                                       !- Number of Vertices
  -223.905871553357, -158.145988998899, 12, !- X,Y,Z Vertex 1 {m}
  -223.905871553357, -158.145988998899, 0, !- X,Y,Z Vertex 2 {m}
  -222.90115375084, -161.255699463659, 0, !- X,Y,Z Vertex 3 {m}
  -222.90115375084, -161.255699463659, 12; !- X,Y,Z Vertex 4 {m}

Shading:Building:Detailed,
  Shading Surface 70,                     !- Name
  ,                                       !- Transmittance Schedule Name
  ,                                       !- Number of Vertices
  -185.806219373514, -139.15580529756, 0, !- X,Y,Z Vertex 1 {m}
  -183.96421006635, -144.819911549438, 0, !- X,Y,Z Vertex 2 {m}
  -184.801835278121, -155.925888947766, 0, !- X,Y,Z Vertex 3 {m}
  -187.31388751168, -156.70324452912, 0,  !- X,Y,Z Vertex 4 {m}
  -187.565179619742, -160.146097586493, 0, !- X,Y,Z Vertex 5 {m}
  -192.170612830934, -161.589757057065, 0, !- X,Y,Z Vertex 6 {m}
  -192.505653688249, -165.47684763627, 0, !- X,Y,Z Vertex 7 {m}
  -199.120738315139, -167.586809077667, 0, !- X,Y,Z Vertex 8 {m}
  -199.707090691316, -175.249931802755, 0, !- X,Y,Z Vertex 9 {m}
  -202.386592639236, -175.02773770726, 0, !- X,Y,Z Vertex 10 {m}
  -203.140492997551, -185.356294933162, 0, !- X,Y,Z Vertex 11 {m}
  -196.525463110181, -185.911776742679, 0, !- X,Y,Z Vertex 12 {m}
  -187.566564126537, -213.788067950685, 0, !- X,Y,Z Vertex 13 {m}
  -188.236674847243, -222.672848596411, 0, !- X,Y,Z Vertex 14 {m}
  -205.821027122592, -221.450712116378, 0, !- X,Y,Z Vertex 15 {m}
  -205.988579293643, -224.338266688085, 0, !- X,Y,Z Vertex 16 {m}
  -227.592207372481, -222.671722593507, 0, !- X,Y,Z Vertex 17 {m}
  -222.90115375084, -161.255699463659, 0, !- X,Y,Z Vertex 18 {m}
  -223.905871553357, -158.145988998899, 0, !- X,Y,Z Vertex 19 {m}
  -221.477549329682, -157.368643518378, 0, !- X,Y,Z Vertex 20 {m}
  -219.969701068331, -136.600471724001, 0; !- X,Y,Z Vertex 21 {m}

Shading:Building:Detailed,
  Shading Surface 71,                     !- Name
  ,                                       !- Transmittance Schedule Name
  ,                                       !- Number of Vertices
  -221.477549329682, -157.368643518378, 12, !- X,Y,Z Vertex 1 {m}
  -221.477549329682, -157.368643518378, 0, !- X,Y,Z Vertex 2 {m}
  -223.905871553357, -158.145988998899, 0, !- X,Y,Z Vertex 3 {m}
  -223.905871553357, -158.145988998899, 12; !- X,Y,Z Vertex 4 {m}

Shading:Building:Detailed,
  Shading Surface 72,                     !- Name
  ,                                       !- Transmittance Schedule Name
  ,                                       !- Number of Vertices
  -219.969701068331, -136.600471724001, 12, !- X,Y,Z Vertex 1 {m}
  -219.969701068331, -136.600471724001, 0, !- X,Y,Z Vertex 2 {m}
  -221.477549329682, -157.368643518378, 0, !- X,Y,Z Vertex 3 {m}
  -221.477549329682, -157.368643518378, 12; !- X,Y,Z Vertex 4 {m}

Shading:Building:Detailed,
  Shading Surface 73,                     !- Name
  ,                                       !- Transmittance Schedule Name
  ,                                       !- Number of Vertices
  -185.806219373514, -139.15580529756, 12, !- X,Y,Z Vertex 1 {m}
  -185.806219373514, -139.15580529756, 0, !- X,Y,Z Vertex 2 {m}
  -219.969701068331, -136.600471724001, 0, !- X,Y,Z Vertex 3 {m}
  -219.969701068331, -136.600471724001, 12; !- X,Y,Z Vertex 4 {m}

Shading:Building:Detailed,
  Shading Surface 74,                     !- Name
  ,                                       !- Transmittance Schedule Name
  ,                                       !- Number of Vertices
  -199.707090691316, -175.249931802755, 12, !- X,Y,Z Vertex 1 {m}
  -199.707090691316, -175.249931802755, 0, !- X,Y,Z Vertex 2 {m}
  -199.120738315139, -167.586809077667, 0, !- X,Y,Z Vertex 3 {m}
  -199.120738315139, -167.586809077667, 12; !- X,Y,Z Vertex 4 {m}

Shading:Building:Detailed,
  Shading Surface 75,                     !- Name
  ,                                       !- Transmittance Schedule Name
  ,                                       !- Number of Vertices
  -219.969701068331, -136.600471724001, 12, !- X,Y,Z Vertex 1 {m}
  -221.477549329682, -157.368643518378, 12, !- X,Y,Z Vertex 2 {m}
  -223.905871553357, -158.145988998899, 12, !- X,Y,Z Vertex 3 {m}
  -222.90115375084, -161.255699463659, 12, !- X,Y,Z Vertex 4 {m}
  -227.592207372481, -222.671722593507, 12, !- X,Y,Z Vertex 5 {m}
  -205.988579293643, -224.338266688085, 12, !- X,Y,Z Vertex 6 {m}
  -205.821027122592, -221.450712116378, 12, !- X,Y,Z Vertex 7 {m}
  -188.236674847243, -222.672848596411, 12, !- X,Y,Z Vertex 8 {m}
  -187.566564126537, -213.788067950685, 12, !- X,Y,Z Vertex 9 {m}
  -196.525463110181, -185.911776742679, 12, !- X,Y,Z Vertex 10 {m}
  -203.140492997551, -185.356294933162, 12, !- X,Y,Z Vertex 11 {m}
  -202.386592639236, -175.02773770726, 12, !- X,Y,Z Vertex 12 {m}
  -199.707090691316, -175.249931802755, 12, !- X,Y,Z Vertex 13 {m}
  -199.120738315139, -167.586809077667, 12, !- X,Y,Z Vertex 14 {m}
  -192.505653688249, -165.47684763627, 12, !- X,Y,Z Vertex 15 {m}
  -192.170612830934, -161.589757057065, 12, !- X,Y,Z Vertex 16 {m}
  -187.565179619742, -160.146097586493, 12, !- X,Y,Z Vertex 17 {m}
  -187.31388751168, -156.70324452912, 12, !- X,Y,Z Vertex 18 {m}
  -184.801835278121, -155.925888947766, 12, !- X,Y,Z Vertex 19 {m}
  -183.96421006635, -144.819911549438, 12, !- X,Y,Z Vertex 20 {m}
  -185.806219373514, -139.15580529756, 12; !- X,Y,Z Vertex 21 {m}

Shading:Building:Detailed,
  Shading Surface 76,                     !- Name
  ,                                       !- Transmittance Schedule Name
  ,                                       !- Number of Vertices
  -212.347680284895, -60.9688414850376, 0, !- X,Y,Z Vertex 1 {m}
  -214.19038274223, -80.2932274823075, 0, !- X,Y,Z Vertex 2 {m}
  -226.080510163476, -79.1822673029835, 0, !- X,Y,Z Vertex 3 {m}
  -228.760874388431, -107.502482526097, 0, !- X,Y,Z Vertex 4 {m}
  -213.605090240025, -108.946723748628, 0, !- X,Y,Z Vertex 5 {m}
  -214.945259129182, -123.384483257059, 0, !- X,Y,Z Vertex 6 {m}
  -244.335810844723, -120.607054693961, 0, !- X,Y,Z Vertex 7 {m}
  -238.891191413609, -62.5228573870783, 0, !- X,Y,Z Vertex 8 {m}
  -225.577629824967, -63.7449428870163, 0, !- X,Y,Z Vertex 9 {m}
  -225.158839222819, -59.7467958020677, 0; !- X,Y,Z Vertex 10 {m}

Shading:Building:Detailed,
  Shading Surface 77,                     !- Name
  ,                                       !- Transmittance Schedule Name
  ,                                       !- Number of Vertices
  -225.158839222819, -59.7467958020677, 12, !- X,Y,Z Vertex 1 {m}
  -225.158839222819, -59.7467958020677, 0, !- X,Y,Z Vertex 2 {m}
  -225.577629824967, -63.7449428870163, 0, !- X,Y,Z Vertex 3 {m}