  ConvergenceLimits,
    0,                       !- Minimum System Timestep {minutes}
    25;                      !- Maximum HVAC Iterations

  Version,23.1;

  Timestep,1;

  LifeCycleCost:Parameters,
    Life Cycle Cost Parameters,  !- Name
    EndOfYear,               !- Discounting Convention
    ConstantDollar,          !- Inflation Approach
    0.03,                    !- Real Discount Rate
    ,                        !- Nominal Discount Rate
    ,                        !- Inflation
    ,                        !- Base Date Month
    2011,                    !- Base Date Year
    ,                        !- Service Date Month
    2011,                    !- Service Date Year
    25,                      !- Length of Study Period in Years
    ,                        !- Tax rate
    None;                    !- Depreciation Method

  LifeCycleCost:UsePriceEscalation,
    U.S. Avg  Commercial-Electricity,  !- LCC Price Escalation Name
    Electricity,             !- Resource
    2011,                    !- Escalation Start Year
    January,                 !- Escalation Start Month
    0.9838,                  !- Year 1 Escalation
    0.9730,                  !- Year 2 Escalation
    0.9632,                  !- Year 3 Escalation
    0.9611,                  !- Year 4 Escalation
    0.9571,                  !- Year 5 Escalation
    0.9553,                  !- Year 6 Escalation
    0.9539,                  !- Year 7 Escalation
    0.9521,                  !- Year 8 Escalation
    0.9546,                  !- Year 9 Escalation
    0.9550,                  !- <none>
    0.9553,                  !- <none>
    0.9564,                  !- <none>
    0.9575,                  !- <none>
    0.9596,                  !- <none>
    0.9618,                  !- <none>
    0.9614,                  !- <none>
    0.9618,                  !- <none>
    0.9618,                  !- <none>
    0.9593,                  !- <none>
    0.9589,                  !- <none>
    0.9607,                  !- <none>
    0.9625,                  !- <none>
    0.9650,                  !- <none>
    0.9708,                  !- <none>
    0.9751,                  !- <none>
    0.9762,                  !- <none>
    0.9766,                  !- <none>
    0.9766,                  !- <none>
    0.9769,                  !- <none>
    0.9773;                  !- <none>

  LifeCycleCost:UsePriceEscalation,
    U.S. Avg  Commercial-Distillate Oil,  !- LCC Price Escalation Name
    FuelOilNo1,              !- Resource
    2011,                    !- Escalation Start Year
    January,                 !- Escalation Start Month
    0.9714,                  !- Year 1 Escalation
    0.9730,                  !- Year 2 Escalation
    0.9942,                  !- Year 3 Escalation
    1.0164,                  !- Year 4 Escalation
    1.0541,                  !- Year 5 Escalation
    1.0928,                  !- Year 6 Escalation
    1.1267,                  !- Year 7 Escalation
    1.1580,                  !- Year 8 Escalation
    1.1792,                  !- Year 9 Escalation
    1.1967,                  !- <none>
    1.2200,                  !- <none>
    1.2333,                  !- <none>
    1.2566,                  !- <none>
    1.2709,                  !- <none>
    1.2826,                  !- <none>
    1.2985,                  !- <none>
    1.3102,                  !- <none>
    1.3250,                  !- <none>
    1.3261,                  !- <none>
    1.3282,                  !- <none>
    1.3324,                  !- <none>
    1.3356,                  !- <none>
    1.3431,                  !- <none>
    1.3510,                  !- <none>
    1.3568,                  !- <none>
    1.3606,                  !- <none>
    1.3637,                  !- <none>
    1.3674,                  !- <none>
    1.3706,                  !- <none>
    1.3743;                  !- <none>

  LifeCycleCost:UsePriceEscalation,
    U.S. Avg  Commercial-Residual Oil,  !- LCC Price Escalation Name
    FuelOilNo2,              !- Resource
    2011,                    !- Escalation Start Year
    January,                 !- Escalation Start Month
    0.8469,                  !- Year 1 Escalation
    0.8257,                  !- Year 2 Escalation
    0.8681,                  !- Year 3 Escalation
    0.8988,                  !- Year 4 Escalation
    0.9289,                  !- Year 5 Escalation
    0.9604,                  !- Year 6 Escalation
    0.9897,                  !- Year 7 Escalation
    1.0075,                  !- Year 8 Escalation
    1.0314,                  !- Year 9 Escalation
    1.0554,                  !- <none>
    1.0861,                  !- <none>
    1.1278,                  !- <none>
    1.1497,                  !- <none>
    1.1620,                  !- <none>
    1.1743,                  !- <none>
    1.1852,                  !- <none>
    1.1948,                  !- <none>
    1.2037,                  !- <none>
    1.2071,                  !- <none>
    1.2119,                  !- <none>
    1.2139,                  !- <none>
    1.2194,                  !- <none>
    1.2276,                  !- <none>
    1.2365,                  !- <none>
    1.2420,                  !- <none>
    1.2461,                  !- <none>
    1.2509,                  !- <none>
    1.2550,                  !- <none>
    1.2591,                  !- <none>
    1.2638;                  !- <none>

  LifeCycleCost:UsePriceEscalation,
    U.S. Avg  Commercial-Natural gas,  !- LCC Price Escalation Name
    NaturalGas,              !- Resource
    2011,                    !- Escalation Start Year
    January,                 !- Escalation Start Month
    0.9823,                  !- Year 1 Escalation
    0.9557,                  !- Year 2 Escalation
    0.9279,                  !- Year 3 Escalation
    0.9257,                  !- Year 4 Escalation
    0.9346,                  !- Year 5 Escalation
    0.9412,                  !- Year 6 Escalation
    0.9512,                  !- Year 7 Escalation
    0.9645,                  !- Year 8 Escalation
    0.9856,                  !- Year 9 Escalation
    1.0067,                  !- <none>
    1.0222,                  !- <none>
    1.0410,                  !- <none>
    1.0610,                  !- <none>
    1.0787,                  !- <none>
    1.0942,                  !- <none>
    1.1098,                  !- <none>
    1.1220,                  !- <none>
    1.1308,                  !- <none>
    1.1386,                  !- <none>
    1.1486,                  !- <none>
    1.1619,                  !- <none>
    1.1763,                  !- <none>
    1.1918,                  !- <none>
    1.2118,                  !- <none>
    1.2284,                  !- <none>
    1.2439,                  !- <none>
    1.2605,                  !- <none>
    1.2772,                  !- <none>
    1.2938,                  !- <none>
    1.3115;                  !- <none>

  LifeCycleCost:UsePriceEscalation,
    U.S. Avg  Commercial-Coal,  !- LCC Price Escalation Name
    Coal,                    !- Resource
    2011,                    !- Escalation Start Year
    January,                 !- Escalation Start Month
    0.9970,                  !- Year 1 Escalation
    1.0089,                  !- Year 2 Escalation
    1.0089,                  !- Year 3 Escalation
    0.9941,                  !- Year 4 Escalation
    0.9941,                  !- Year 5 Escalation
    1.0000,                  !- Year 6 Escalation
    1.0030,                  !- Year 7 Escalation
    1.0059,                  !- Year 8 Escalation
    1.0089,                  !- Year 9 Escalation
    1.0119,                  !- <none>
    1.0148,                  !- <none>
    1.0178,                  !- <none>
    1.0208,                  !- <none>
    1.0267,                  !- <none>
    1.0297,                  !- <none>
    1.0356,                  !- <none>
    1.0415,                  !- <none>
    1.0534,                  !- <none>
    1.0564,                  !- <none>
    1.0593,                  !- <none>
    1.0653,                  !- <none>
    1.0712,                  !- <none>
    1.0742,                  !- <none>
    1.0801,                  !- <none>
    1.0831,                  !- <none>
    1.0831,                  !- <none>
    1.0861,                  !- <none>
    1.0890,                  !- <none>
    1.0920,                  !- <none>
    1.0950;                  !- <none>

  Building,
    bld_2,                   !- Name
    ,                        !- North Axis {deg}
    City,                    !- Terrain
    ,                        !- Loads Convergence Tolerance Value {W}
    ,                        !- Temperature Convergence Tolerance Value {deltaC}
    ,                        !- Solar Distribution
    ,                        !- Maximum Number of Warmup Days
    ;                        !- Minimum Number of Warmup Days

  Zone,
    Building Story 1 ThermalZone,  !- Name
    ,                        !- Direction of Relative North {deg}
    0,                       !- X Origin {m}
    0,                       !- Y Origin {m}
    0,                       !- Z Origin {m}
    ,                        !- Type
    1,                       !- Multiplier
    ,                        !- Ceiling Height {m}
    ,                        !- Volume {m3}
    ,                        !- Floor Area {m2}
    ,                        !- Zone Inside Convection Algorithm
    ,                        !- Zone Outside Convection Algorithm
    Yes;                     !- Part of Total Floor Area

  Space,
    Building Story 1 Space,  !- Name
    Building Story 1 ThermalZone,  !- Zone Name
    ,                        !- Ceiling Height {m}
    ,                        !- Volume {m3}
    ,                        !- Floor Area {m2}
    Story Ground Blended Space Type;  !- Space Type

  SpaceList,
    Story Ground Blended Space Type,  !- Name
    Building Story 1 Space 3,!- Space 1 Name
    Building Story 1 Space,  !- Space 2 Name
    Building Story 1 Space 1,!- Space 3 Name
    Building Story 1 Space 2,!- Space 4 Name
    Building Story 1 Space 6,!- Space 5 Name
    Building Story 1 Space 5,!- Space 6 Name
    Building Story 1 Space 4,!- Space 7 Name
    Building Story 1 Space 7,!- Space 8 Name
    Building Story 1 Space 8,!- Space 9 Name
    Building Story 1 Space 9,!- Space 10 Name
    Building Story 1 Space 10,  !- Space 11 Name
    Building Story 1 Space 11;  !- Space 12 Name

  InternalMass,
    Building Story 1 Space 3 Office OfficeLarge Data Center A  - Story Ground Mass,  !- Name
    InteriorFurnishings 1,   !- Construction Name
    Building Story 1 ThermalZone 3,  !- Zone or ZoneList Name
    Building Story 1 Space 3,!- Space or SpaceList Name
    0.0823545043024062;      !- Surface Area {m2}

  InternalMass,
    Building Story 1 Space Office OfficeLarge Data Center A  - Story Ground Mass,  !- Name
    InteriorFurnishings 1,   !- Construction Name
    Building Story 1 ThermalZone,  !- Zone or ZoneList Name
    Building Story 1 Space,  !- Space or SpaceList Name
    6.37182521233961;        !- Surface Area {m2}

  InternalMass,
    Building Story 1 Space 1 Office OfficeLarge Data Center A  - Story Ground Mass,  !- Name
    InteriorFurnishings 1,   !- Construction Name
    Building Story 1 ThermalZone 1,  !- Zone or ZoneList Name
    Building Story 1 Space 1,!- Space or SpaceList Name
    0.195593542800683;       !- Surface Area {m2}

  InternalMass,
    Building Story 1 Space 2 Office OfficeLarge Data Center A  - Story Ground Mass,  !- Name
    InteriorFurnishings 1,   !- Construction Name
    Building Story 1 ThermalZone 2,  !- Zone or ZoneList Name
    Building Story 1 Space 2,!- Space or SpaceList Name
    0.0472071814340138;      !- Surface Area {m2}

  InternalMass,
    Building Story 1 Space 6 Office OfficeLarge Data Center A  - Story Ground Mass,  !- Name
    InteriorFurnishings 1,   !- Construction Name
    Building Story 1 ThermalZone 6,  !- Zone or ZoneList Name
    Building Story 1 Space 6,!- Space or SpaceList Name
    0.122954230769114;       !- Surface Area {m2}

  InternalMass,
    Building Story 1 Space 5 Office OfficeLarge Data Center A  - Story Ground Mass,  !- Name
    InteriorFurnishings 1,   !- Construction Name
    Building Story 1 ThermalZone 5,  !- Zone or ZoneList Name
    Building Story 1 Space 5,!- Space or SpaceList Name
    0.0287964852926514;      !- Surface Area {m2}

  InternalMass,
    Building Story 1 Space 4 Office OfficeLarge Data Center A  - Story Ground Mass,  !- Name
    InteriorFurnishings 1,   !- Construction Name
    Building Story 1 ThermalZone 4,  !- Zone or ZoneList Name
    Building Story 1 Space 4,!- Space or SpaceList Name
    0.121124469902901;       !- Surface Area {m2}

  InternalMass,
    Building Story 1 Space 7 Office OfficeLarge Data Center A  - Story Ground Mass,  !- Name
    InteriorFurnishings 1,   !- Construction Name
    Building Story 1 ThermalZone 7,  !- Zone or ZoneList Name
    Building Story 1 Space 7,!- Space or SpaceList Name
    0.156379036319553;       !- Surface Area {m2}

  InternalMass,
    Building Story 1 Space 8 Office OfficeLarge Data Center A  - Story Ground Mass,  !- Name
    InteriorFurnishings 1,   !- Construction Name
    Building Story 1 ThermalZone 8,  !- Zone or ZoneList Name
    Building Story 1 Space 8,!- Space or SpaceList Name
    0.0761753651110125;      !- Surface Area {m2}

  InternalMass,
    Building Story 1 Space 9 Office OfficeLarge Data Center A  - Story Ground Mass,  !- Name
    InteriorFurnishings 1,   !- Construction Name
    Building Story 1 ThermalZone 9,  !- Zone or ZoneList Name
    Building Story 1 Space 9,!- Space or SpaceList Name
    0.374360072695749;       !- Surface Area {m2}

  InternalMass,
    Building Story 1 Space 10 Office OfficeLarge Data Center A  - Story Ground Mass,  !- Name
    InteriorFurnishings 1,   !- Construction Name
    Building Story 1 ThermalZone 10,  !- Zone or ZoneList Name
    Building Story 1 Space 10,  !- Space or SpaceList Name
    0.38847967276905;        !- Surface Area {m2}

  InternalMass,
    Building Story 1 Space 11 Office OfficeLarge Data Center A  - Story Ground Mass,  !- Name
    InteriorFurnishings 1,   !- Construction Name
    Building Story 1 ThermalZone 11,  !- Zone or ZoneList Name
    Building Story 1 Space 11,  !- Space or SpaceList Name
    0.475310426853415;       !- Surface Area {m2}

  InternalMass,
    Building Story 1 Space 3 Office OfficeLarge Data Center B  - Story Ground Mass,  !- Name
    InteriorFurnishings 1,   !- Construction Name
    Building Story 1 ThermalZone 3,  !- Zone or ZoneList Name
    Building Story 1 Space 3,!- Space or SpaceList Name
    0.572306579665142;       !- Surface Area {m2}

  InternalMass,
    Building Story 1 Space Office OfficeLarge Data Center B  - Story Ground Mass,  !- Name
    InteriorFurnishings 1,   !- Construction Name
    Building Story 1 ThermalZone,  !- Zone or ZoneList Name
    Building Story 1 Space,  !- Space or SpaceList Name
    44.2797576694497;        !- Surface Area {m2}

  InternalMass,
    Building Story 1 Space 1 Office OfficeLarge Data Center B  - Story Ground Mass,  !- Name
    InteriorFurnishings 1,   !- Construction Name
    Building Story 1 ThermalZone 1,  !- Zone or ZoneList Name
    Building Story 1 Space 1,!- Space or SpaceList Name
    1.3592392114195;         !- Surface Area {m2}

  InternalMass,
    Building Story 1 Space 2 Office OfficeLarge Data Center B  - Story Ground Mass,  !- Name
    InteriorFurnishings 1,   !- Construction Name
    Building Story 1 ThermalZone 2,  !- Zone or ZoneList Name
    Building Story 1 Space 2,!- Space or SpaceList Name
    0.328057108363202;       !- Surface Area {m2}

  InternalMass,
    Building Story 1 Space 6 Office OfficeLarge Data Center B  - Story Ground Mass,  !- Name
    InteriorFurnishings 1,   !- Construction Name
    Building Story 1 ThermalZone 6,  !- Zone or ZoneList Name
    Building Story 1 Space 6,!- Space or SpaceList Name
    0.854446467292673;       !- Surface Area {m2}

  InternalMass,
    Building Story 1 Space 5 Office OfficeLarge Data Center B  - Story Ground Mass,  !- Name
    InteriorFurnishings 1,   !- Construction Name
    Building Story 1 ThermalZone 5,  !- Zone or ZoneList Name
    Building Story 1 Space 5,!- Space or SpaceList Name
    0.200115563123283;       !- Surface Area {m2}

  InternalMass,
    Building Story 1 Space 4 Office OfficeLarge Data Center B  - Story Ground Mass,  !- Name
    InteriorFurnishings 1,   !- Construction Name
    Building Story 1 ThermalZone 4,  !- Zone or ZoneList Name
    Building Story 1 Space 4,!- Space or SpaceList Name
    0.841730900708697;       !- Surface Area {m2}

  InternalMass,
    Building Story 1 Space 7 Office OfficeLarge Data Center B  - Story Ground Mass,  !- Name
    InteriorFurnishings 1,   !- Construction Name
    Building Story 1 ThermalZone 7,  !- Zone or ZoneList Name
    Building Story 1 Space 7,!- Space or SpaceList Name
    1.08672564015129;        !- Surface Area {m2}

  InternalMass,
    Building Story 1 Space 8 Office OfficeLarge Data Center B  - Story Ground Mass,  !- Name
    InteriorFurnishings 1,   !- Construction Name
    Building Story 1 ThermalZone 8,  !- Zone or ZoneList Name
    Building Story 1 Space 8,!- Space or SpaceList Name
    0.529365855950556;       !- Surface Area {m2}

  InternalMass,
    Building Story 1 Space 9 Office OfficeLarge Data Center B  - Story Ground Mass,  !- Name
    InteriorFurnishings 1,   !- Construction Name
    Building Story 1 ThermalZone 9,  !- Zone or ZoneList Name
    Building Story 1 Space 9,!- Space or SpaceList Name
    2.60154237564197;        !- Surface Area {m2}

  InternalMass,
    Building Story 1 Space 10 Office OfficeLarge Data Center B  - Story Ground Mass,  !- Name
    InteriorFurnishings 1,   !- Construction Name
    Building Story 1 ThermalZone 10,  !- Zone or ZoneList Name
    Building Story 1 Space 10,  !- Space or SpaceList Name
    2.69966378493997;        !- Surface Area {m2}

  InternalMass,
    Building Story 1 Space 11 Office OfficeLarge Data Center B  - Story Ground Mass,  !- Name
    InteriorFurnishings 1,   !- Construction Name
    Building Story 1 ThermalZone 11,  !- Zone or ZoneList Name
    Building Story 1 Space 11,  !- Space or SpaceList Name
    3.30307719020183;        !- Surface Area {m2}

  InternalMass,
    Building Story 1 Space 3 Office OfficeLarge Data Center C  - Story Ground Mass,  !- Name
    InteriorFurnishings 1,   !- Construction Name
    Building Story 1 ThermalZone 3,  !- Zone or ZoneList Name
    Building Story 1 Space 3,!- Space or SpaceList Name
    0.0823545043024062;      !- Surface Area {m2}

  InternalMass,
    Building Story 1 Space Office OfficeLarge Data Center C  - Story Ground Mass,  !- Name
    InteriorFurnishings 1,   !- Construction Name
    Building Story 1 ThermalZone,  !- Zone or ZoneList Name
    Building Story 1 Space,  !- Space or SpaceList Name
    6.37182521233961;        !- Surface Area {m2}

  InternalMass,
    Building Story 1 Space 1 Office OfficeLarge Data Center C  - Story Ground Mass,  !- Name
    InteriorFurnishings 1,   !- Construction Name
    Building Story 1 ThermalZone 1,  !- Zone or ZoneList Name
    Building Story 1 Space 1,!- Space or SpaceList Name
    0.195593542800683;       !- Surface Area {m2}

  InternalMass,
    Building Story 1 Space 2 Office OfficeLarge Data Center C  - Story Ground Mass,  !- Name
    InteriorFurnishings 1,   !- Construction Name
    Building Story 1 ThermalZone 2,  !- Zone or ZoneList Name
    Building Story 1 Space 2,!- Space or SpaceList Name
    0.0472071814340138;      !- Surface Area {m2}

  InternalMass,
    Building Story 1 Space 6 Office OfficeLarge Data Center C  - Story Ground Mass,  !- Name
    InteriorFurnishings 1,   !- Construction Name
    Building Story 1 ThermalZone 6,  !- Zone or ZoneList Name
    Building Story 1 Space 6,!- Space or SpaceList Name
    0.122954230769114;       !- Surface Area {m2}

  InternalMass,
    Building Story 1 Space 5 Office OfficeLarge Data Center C  - Story Ground Mass,  !- Name
    InteriorFurnishings 1,   !- Construction Name
    Building Story 1 ThermalZone 5,  !- Zone or ZoneList Name
    Building Story 1 Space 5,!- Space or SpaceList Name
    0.0287964852926514;      !- Surface Area {m2}

  InternalMass,
    Building Story 1 Space 4 Office OfficeLarge Data Center C  - Story Ground Mass,  !- Name
    InteriorFurnishings 1,   !- Construction Name
    Building Story 1 ThermalZone 4,  !- Zone or ZoneList Name
    Building Story 1 Space 4,!- Space or SpaceList Name
    0.121124469902901;       !- Surface Area {m2}

  InternalMass,
    Building Story 1 Space 7 Office OfficeLarge Data Center C  - Story Ground Mass,  !- Name
    InteriorFurnishings 1,   !- Construction Name
    Building Story 1 ThermalZone 7,  !- Zone or ZoneList Name
    Building Story 1 Space 7,!- Space or SpaceList Name
    0.156379036319553;       !- Surface Area {m2}

  InternalMass,
    Building Story 1 Space 8 Office OfficeLarge Data Center C  - Story Ground Mass,  !- Name
    InteriorFurnishings 1,   !- Construction Name
    Building Story 1 ThermalZone 8,  !- Zone or ZoneList Name
    Building Story 1 Space 8,!- Space or SpaceList Name
    0.0761753651110125;      !- Surface Area {m2}

  InternalMass,
    Building Story 1 Space 9 Office OfficeLarge Data Center C  - Story Ground Mass,  !- Name
    InteriorFurnishings 1,   !- Construction Name
    Building Story 1 ThermalZone 9,  !- Zone or ZoneList Name
    Building Story 1 Space 9,!- Space or SpaceList Name
    0.374360072695749;       !- Surface Area {m2}

  InternalMass,
    Building Story 1 Space 10 Office OfficeLarge Data Center C  - Story Ground Mass,  !- Name
    InteriorFurnishings 1,   !- Construction Name
    Building Story 1 ThermalZone 10,  !- Zone or ZoneList Name
    Building Story 1 Space 10,  !- Space or SpaceList Name
    0.38847967276905;        !- Surface Area {m2}

  InternalMass,
    Building Story 1 Space 11 Office OfficeLarge Data Center C  - Story Ground Mass,  !- Name
    InteriorFurnishings 1,   !- Construction Name
    Building Story 1 ThermalZone 11,  !- Zone or ZoneList Name
    Building Story 1 Space 11,  !- Space or SpaceList Name
    0.475310426853415;       !- Surface Area {m2}

  InternalMass,
    Building Story 1 Space 3 Office OfficeLarge Main Data Center A  - Story Ground Mass,  !- Name
    InteriorFurnishings 1,   !- Construction Name
    Building Story 1 ThermalZone 3,  !- Zone or ZoneList Name
    Building Story 1 Space 3,!- Space or SpaceList Name
    0.148062885394753;       !- Surface Area {m2}

  InternalMass,
    Building Story 1 Space Office OfficeLarge Main Data Center A  - Story Ground Mass,  !- Name
    InteriorFurnishings 1,   !- Construction Name
    Building Story 1 ThermalZone,  !- Zone or ZoneList Name
    Building Story 1 Space,  !- Space or SpaceList Name
    11.4557283072916;        !- Surface Area {m2}

  InternalMass,
    Building Story 1 Space 1 Office OfficeLarge Main Data Center A  - Story Ground Mass,  !- Name
    InteriorFurnishings 1,   !- Construction Name
    Building Story 1 ThermalZone 1,  !- Zone or ZoneList Name
    Building Story 1 Space 1,!- Space or SpaceList Name
    0.351652220567189;       !- Surface Area {m2}

  InternalMass,
    Building Story 1 Space 2 Office OfficeLarge Main Data Center A  - Story Ground Mass,  !- Name
    InteriorFurnishings 1,   !- Construction Name
    Building Story 1 ThermalZone 2,  !- Zone or ZoneList Name
    Building Story 1 Space 2,!- Space or SpaceList Name
    0.084872485769664;       !- Surface Area {m2}

  InternalMass,
    Building Story 1 Space 6 Office OfficeLarge Main Data Center A  - Story Ground Mass,  !- Name
    InteriorFurnishings 1,   !- Construction Name
    Building Story 1 ThermalZone 6,  !- Zone or ZoneList Name
    Building Story 1 Space 6,!- Space or SpaceList Name
    0.22105601063809;        !- Surface Area {m2}

  InternalMass,
    Building Story 1 Space 5 Office OfficeLarge Main Data Center A  - Story Ground Mass,  !- Name
    InteriorFurnishings 1,   !- Construction Name
    Building Story 1 ThermalZone 5,  !- Zone or ZoneList Name
    Building Story 1 Space 5,!- Space or SpaceList Name
    0.0517724044091291;      !- Surface Area {m2}

  InternalMass,
    Building Story 1 Space 4 Office OfficeLarge Main Data Center A  - Story Ground Mass,  !- Name
    InteriorFurnishings 1,   !- Construction Name
    Building Story 1 ThermalZone 4,  !- Zone or ZoneList Name
    Building Story 1 Space 4,!- Space or SpaceList Name
    0.217766334187132;       !- Surface Area {m2}

  InternalMass,
    Building Story 1 Space 7 Office OfficeLarge Main Data Center A  - Story Ground Mass,  !- Name
    InteriorFurnishings 1,   !- Construction Name
    Building Story 1 ThermalZone 7,  !- Zone or ZoneList Name
    Building Story 1 Space 7,!- Space or SpaceList Name
    0.281149544021328;       !- Surface Area {m2}

  InternalMass,
    Building Story 1 Space 8 Office OfficeLarge Main Data Center A  - Story Ground Mass,  !- Name
    InteriorFurnishings 1,   !- Construction Name
    Building Story 1 ThermalZone 8,  !- Zone or ZoneList Name
    Building Story 1 Space 8,!- Space or SpaceList Name
    0.136953581954907;       !- Surface Area {m2}

  InternalMass,
    Building Story 1 Space 9 Office OfficeLarge Main Data Center A  - Story Ground Mass,  !- Name
    InteriorFurnishings 1,   !- Construction Name
    Building Story 1 ThermalZone 9,  !- Zone or ZoneList Name
    Building Story 1 Space 9,!- Space or SpaceList Name
    0.673051620059387;       !- Surface Area {m2}

  InternalMass,
    Building Story 1 Space 10 Office OfficeLarge Main Data Center A  - Story Ground Mass,  !- Name
    InteriorFurnishings 1,   !- Construction Name
    Building Story 1 ThermalZone 10,  !- Zone or ZoneList Name
    Building Story 1 Space 10,  !- Space or SpaceList Name
    0.698436858489045;       !- Surface Area {m2}

  InternalMass,
    Building Story 1 Space 11 Office OfficeLarge Main Data Center A  - Story Ground Mass,  !- Name
    InteriorFurnishings 1,   !- Construction Name
    Building Story 1 ThermalZone 11,  !- Zone or ZoneList Name
    Building Story 1 Space 11,  !- Space or SpaceList Name
    0.854547469555617;       !- Surface Area {m2}

  InternalMass,
    Building Story 1 Space 3 Office OfficeLarge Main Data Center B  - Story Ground Mass,  !- Name
    InteriorFurnishings 1,   !- Construction Name
    Building Story 1 ThermalZone 3,  !- Zone or ZoneList Name
    Building Story 1 Space 3,!- Space or SpaceList Name
    1.02893416982351;        !- Surface Area {m2}

  InternalMass,
    Building Story 1 Space Office OfficeLarge Main Data Center B  - Story Ground Mass,  !- Name
    InteriorFurnishings 1,   !- Construction Name
    Building Story 1 ThermalZone,  !- Zone or ZoneList Name
    Building Story 1 Space,  !- Space or SpaceList Name
    79.6093515546501;        !- Surface Area {m2}

  InternalMass,
    Building Story 1 Space 1 Office OfficeLarge Main Data Center B  - Story Ground Mass,  !- Name
    InteriorFurnishings 1,   !- Construction Name
    Building Story 1 ThermalZone 1,  !- Zone or ZoneList Name
    Building Story 1 Space 1,!- Space or SpaceList Name
    2.44373858223297;        !- Surface Area {m2}

  InternalMass,
    Building Story 1 Space 2 Office OfficeLarge Main Data Center B  - Story Ground Mass,  !- Name
    InteriorFurnishings 1,   !- Construction Name
    Building Story 1 ThermalZone 2,  !- Zone or ZoneList Name
    Building Story 1 Space 2,!- Space or SpaceList Name
    0.58980480120619;        !- Surface Area {m2}

  InternalMass,
    Building Story 1 Space 6 Office OfficeLarge Main Data Center B  - Story Ground Mass,  !- Name
    InteriorFurnishings 1,   !- Construction Name
    Building Story 1 ThermalZone 6,  !- Zone or ZoneList Name
    Building Story 1 Space 6,!- Space or SpaceList Name
    1.53618566991983;        !- Surface Area {m2}

  InternalMass,
    Building Story 1 Space 5 Office OfficeLarge Main Data Center B  - Story Ground Mass,  !- Name
    InteriorFurnishings 1,   !- Construction Name
    Building Story 1 ThermalZone 5,  !- Zone or ZoneList Name
    Building Story 1 Space 5,!- Space or SpaceList Name
    0.359782235828036;       !- Surface Area {m2}

  InternalMass,
    Building Story 1 Space 4 Office OfficeLarge Main Data Center B  - Story Ground Mass,  !- Name
    InteriorFurnishings 1,   !- Construction Name
    Building Story 1 ThermalZone 4,  !- Zone or ZoneList Name
    Building Story 1 Space 4,!- Space or SpaceList Name
    1.51332470446566;        !- Surface Area {m2}

  InternalMass,
    Building Story 1 Space 7 Office OfficeLarge Main Data Center B  - Story Ground Mass,  !- Name
    InteriorFurnishings 1,   !- Construction Name
    Building Story 1 ThermalZone 7,  !- Zone or ZoneList Name
    Building Story 1 Space 7,!- Space or SpaceList Name
    1.95379397005926;        !- Surface Area {m2}

  InternalMass,
    Building Story 1 Space 8 Office OfficeLarge Main Data Center B  - Story Ground Mass,  !- Name
    InteriorFurnishings 1,   !- Construction Name
    Building Story 1 ThermalZone 8,  !- Zone or ZoneList Name
    Building Story 1 Space 8,!- Space or SpaceList Name
    0.951732230379204;       !- Surface Area {m2}

  InternalMass,
    Building Story 1 Space 9 Office OfficeLarge Main Data Center B  - Story Ground Mass,  !- Name
    InteriorFurnishings 1,   !- Construction Name
    Building Story 1 ThermalZone 9,  !- Zone or ZoneList Name
    Building Story 1 Space 9,!- Space or SpaceList Name
    4.67724107961169;        !- Surface Area {m2}

  InternalMass,
    Building Story 1 Space 10 Office OfficeLarge Main Data Center B  - Story Ground Mass,  !- Name
    InteriorFurnishings 1,   !- Construction Name
    Building Story 1 ThermalZone 10,  !- Zone or ZoneList Name
    Building Story 1 Space 10,  !- Space or SpaceList Name
    4.85365084739214;        !- Surface Area {m2}
