  ConvergenceLimits,
    0,                       !- Minimum System Timestep {minutes}
    25;                      !- Maximum HVAC Iterations

  Version,23.1;

  Timestep,1;

  LifeCycleCost:Parameters,
    Life Cycle Cost Parameters,  !- Name
    EndOfYear,               !- Discounting Convention
    ConstantDollar,          !- Inflation Approach
    0.03,                    !- Real Discount Rate
    ,                        !- Nominal Discount Rate
    ,                        !- Inflation
    ,                        !- Base Date Month
    2011,                    !- Base Date Year
    ,                        !- Service Date Month
    2011,                    !- Service Date Year
    25,                      !- Length of Study Period in Years
    ,                        !- Tax rate
    None;                    !- Depreciation Method

  LifeCycleCost:UsePriceEscalation,
    U.S. Avg  Commercial-Electricity,  !- LCC Price Escalation Name
    Electricity,             !- Resource
    2011,                    !- Escalation Start Year
    January,                 !- Escalation Start Month
    0.9838,                  !- Year 1 Escalation
    0.9730,                  !- Year 2 Escalation
    0.9632,                  !- Year 3 Escalation
    0.9611,                  !- Year 4 Escalation
    0.9571,                  !- Year 5 Escalation
    0.9553,                  !- Year 6 Escalation
    0.9539,                  !- Year 7 Escalation
    0.9521,                  !- Year 8 Escalation
    0.9546,                  !- Year 9 Escalation
    0.9550,                  !- <none>
    0.9553,                  !- <none>
    0.9564,                  !- <none>
    0.9575,                  !- <none>
    0.9596,                  !- <none>
    0.9618,                  !- <none>
    0.9614,                  !- <none>
    0.9618,                  !- <none>
    0.9618,                  !- <none>
    0.9593,                  !- <none>
    0.9589,                  !- <none>
    0.9607,                  !- <none>
    0.9625,                  !- <none>
    0.9650,                  !- <none>
    0.9708,                  !- <none>
    0.9751,                  !- <none>
    0.9762,                  !- <none>
    0.9766,                  !- <none>
    0.9766,                  !- <none>
    0.9769,                  !- <none>
    0.9773;                  !- <none>

  LifeCycleCost:UsePriceEscalation,
    U.S. Avg  Commercial-Distillate Oil,  !- LCC Price Escalation Name
    FuelOilNo1,              !- Resource
    2011,                    !- Escalation Start Year
    January,                 !- Escalation Start Month
    0.9714,                  !- Year 1 Escalation
    0.9730,                  !- Year 2 Escalation
    0.9942,                  !- Year 3 Escalation
    1.0164,                  !- Year 4 Escalation
    1.0541,                  !- Year 5 Escalation
    1.0928,                  !- Year 6 Escalation
    1.1267,                  !- Year 7 Escalation
    1.1580,                  !- Year 8 Escalation
    1.1792,                  !- Year 9 Escalation
    1.1967,                  !- <none>
    1.2200,                  !- <none>
    1.2333,                  !- <none>
    1.2566,                  !- <none>
    1.2709,                  !- <none>
    1.2826,                  !- <none>
    1.2985,                  !- <none>
    1.3102,                  !- <none>
    1.3250,                  !- <none>
    1.3261,                  !- <none>
    1.3282,                  !- <none>
    1.3324,                  !- <none>
    1.3356,                  !- <none>
    1.3431,                  !- <none>
    1.3510,                  !- <none>
    1.3568,                  !- <none>
    1.3606,                  !- <none>
    1.3637,                  !- <none>
    1.3674,                  !- <none>
    1.3706,                  !- <none>
    1.3743;                  !- <none>

  LifeCycleCost:UsePriceEscalation,
    U.S. Avg  Commercial-Residual Oil,  !- LCC Price Escalation Name
    FuelOilNo2,              !- Resource
    2011,                    !- Escalation Start Year
    January,                 !- Escalation Start Month
    0.8469,                  !- Year 1 Escalation
    0.8257,                  !- Year 2 Escalation
    0.8681,                  !- Year 3 Escalation
    0.8988,                  !- Year 4 Escalation
    0.9289,                  !- Year 5 Escalation
    0.9604,                  !- Year 6 Escalation
    0.9897,                  !- Year 7 Escalation
    1.0075,                  !- Year 8 Escalation
    1.0314,                  !- Year 9 Escalation
    1.0554,                  !- <none>
    1.0861,                  !- <none>
    1.1278,                  !- <none>
    1.1497,                  !- <none>
    1.1620,                  !- <none>
    1.1743,                  !- <none>
    1.1852,                  !- <none>
    1.1948,                  !- <none>
    1.2037,                  !- <none>
    1.2071,                  !- <none>
    1.2119,                  !- <none>
    1.2139,                  !- <none>
    1.2194,                  !- <none>
    1.2276,                  !- <none>
    1.2365,                  !- <none>
    1.2420,                  !- <none>
    1.2461,                  !- <none>
    1.2509,                  !- <none>
    1.2550,                  !- <none>
    1.2591,                  !- <none>
    1.2638;                  !- <none>

  LifeCycleCost:UsePriceEscalation,
    U.S. Avg  Commercial-Natural gas,  !- LCC Price Escalation Name
    NaturalGas,              !- Resource
    2011,                    !- Escalation Start Year
    January,                 !- Escalation Start Month
    0.9823,                  !- Year 1 Escalation
    0.9557,                  !- Year 2 Escalation
    0.9279,                  !- Year 3 Escalation
    0.9257,                  !- Year 4 Escalation
    0.9346,                  !- Year 5 Escalation
    0.9412,                  !- Year 6 Escalation
    0.9512,                  !- Year 7 Escalation
    0.9645,                  !- Year 8 Escalation
    0.9856,                  !- Year 9 Escalation
    1.0067,                  !- <none>
    1.0222,                  !- <none>
    1.0410,                  !- <none>
    1.0610,                  !- <none>
    1.0787,                  !- <none>
    1.0942,                  !- <none>
    1.1098,                  !- <none>
    1.1220,                  !- <none>
    1.1308,                  !- <none>
    1.1386,                  !- <none>
    1.1486,                  !- <none>
    1.1619,                  !- <none>
    1.1763,                  !- <none>
    1.1918,                  !- <none>
    1.2118,                  !- <none>
    1.2284,                  !- <none>
    1.2439,                  !- <none>
    1.2605,                  !- <none>
    1.2772,                  !- <none>
    1.2938,                  !- <none>
    1.3115;                  !- <none>

  LifeCycleCost:UsePriceEscalation,
    U.S. Avg  Commercial-Coal,  !- LCC Price Escalation Name
    Coal,                    !- Resource
    2011,                    !- Escalation Start Year
    January,                 !- Escalation Start Month
    0.9970,                  !- Year 1 Escalation
    1.0089,                  !- Year 2 Escalation
    1.0089,                  !- Year 3 Escalation
    0.9941,                  !- Year 4 Escalation
    0.9941,                  !- Year 5 Escalation
    1.0000,                  !- Year 6 Escalation
    1.0030,                  !- Year 7 Escalation
    1.0059,                  !- Year 8 Escalation
    1.0089,                  !- Year 9 Escalation
    1.0119,                  !- <none>
    1.0148,                  !- <none>
    1.0178,                  !- <none>
    1.0208,                  !- <none>
    1.0267,                  !- <none>
    1.0297,                  !- <none>
    1.0356,                  !- <none>
    1.0415,                  !- <none>
    1.0534,                  !- <none>
    1.0564,                  !- <none>
    1.0593,                  !- <none>
    1.0653,                  !- <none>
    1.0712,                  !- <none>
    1.0742,                  !- <none>
    1.0801,                  !- <none>
    1.0831,                  !- <none>
    1.0831,                  !- <none>
    1.0861,                  !- <none>
    1.0890,                  !- <none>
    1.0920,                  !- <none>
    1.0950;                  !- <none>

  Building,
    bld_9,                   !- Name
    ,                        !- North Axis {deg}
    City,                    !- Terrain
    ,                        !- Loads Convergence Tolerance Value {W}
    ,                        !- Temperature Convergence Tolerance Value {deltaC}
    ,                        !- Solar Distribution
    ,                        !- Maximum Number of Warmup Days
    ;                        !- Minimum Number of Warmup Days

  Shading:Building:Detailed,
    Shading Surface 1,       !- Name
    ,                        !- Transmittance Schedule Name
    ,                        !- Number of Vertices
    -22.6078734267746,31.8742569182098,12,  !- X,Y,Z ==> Vertex 1 {m}
    -22.6078734267746,31.8742569182098,0,  !- X,Y,Z ==> Vertex 2 {m}
    -31.2323575210498,32.0964088850771,0,  !- X,Y,Z ==> Vertex 3 {m}
    -31.2323575210498,32.0964088850771,12;  !- X,Y,Z ==> Vertex 4 {m}

  Shading:Building:Detailed,
    Shading Surface 2,       !- Name
    ,                        !- Transmittance Schedule Name
    ,                        !- Number of Vertices
    -23.1940633866739,13.1051175422281,12,  !- X,Y,Z ==> Vertex 1 {m}
    -23.1940633866739,13.1051175422281,0,  !- X,Y,Z ==> Vertex 2 {m}
    -22.6078734267746,31.8742569182098,0,  !- X,Y,Z ==> Vertex 3 {m}
    -22.6078734267746,31.8742569182098,12;  !- X,Y,Z ==> Vertex 4 {m}

  Shading:Building:Detailed,
    Shading Surface 3,       !- Name
    ,                        !- Transmittance Schedule Name
    ,                        !- Number of Vertices
    -31.2323575210498,32.0964088850771,12,  !- X,Y,Z ==> Vertex 1 {m}
    -31.8185697377641,13.3272701984671,12,  !- X,Y,Z ==> Vertex 2 {m}
    -23.1940633866739,13.1051175422281,12,  !- X,Y,Z ==> Vertex 3 {m}
    -22.6078734267746,31.8742569182098,12;  !- X,Y,Z ==> Vertex 4 {m}

  Shading:Building:Detailed,
    Shading Surface 4,       !- Name
    ,                        !- Transmittance Schedule Name
    ,                        !- Number of Vertices
    -22.6078734267746,31.8742569182098,0,  !- X,Y,Z ==> Vertex 1 {m}
    -23.1940633866739,13.1051175422281,0,  !- X,Y,Z ==> Vertex 2 {m}
    -31.8185697377641,13.3272701984671,0,  !- X,Y,Z ==> Vertex 3 {m}
    -31.2323575210498,32.0964088850771,0;  !- X,Y,Z ==> Vertex 4 {m}

  Shading:Building:Detailed,
    Shading Surface 5,       !- Name
    ,                        !- Transmittance Schedule Name
    ,                        !- Number of Vertices
    -31.2323575210498,32.0964088850771,12,  !- X,Y,Z ==> Vertex 1 {m}
    -31.2323575210498,32.0964088850771,0,  !- X,Y,Z ==> Vertex 2 {m}
    -31.8185697377641,13.3272701984671,0,  !- X,Y,Z ==> Vertex 3 {m}
    -31.8185697377641,13.3272701984671,12;  !- X,Y,Z ==> Vertex 4 {m}

  Shading:Building:Detailed,
    Shading Surface 6,       !- Name
    ,                        !- Transmittance Schedule Name
    ,                        !- Number of Vertices
    -31.8185697377641,13.3272701984671,12,  !- X,Y,Z ==> Vertex 1 {m}
    -31.8185697377641,13.3272701984671,0,  !- X,Y,Z ==> Vertex 2 {m}
    -23.1940633866739,13.1051175422281,0,  !- X,Y,Z ==> Vertex 3 {m}
    -23.1940633866739,13.1051175422281,12;  !- X,Y,Z ==> Vertex 4 {m}

  Shading:Building:Detailed,
    Shading Surface 31,      !- Name
    ,                        !- Transmittance Schedule Name
    ,                        !- Number of Vertices
    159.092780576854,16.4386222157279,0,  !- X,Y,Z ==> Vertex 1 {m}
    158.506821277363,8.55334901941742,0,  !- X,Y,Z ==> Vertex 2 {m}
    162.693485398512,8.22026153228983,0,  !- X,Y,Z ==> Vertex 3 {m}
    161.940112385078,-1.886215650859,0,  !- X,Y,Z ==> Vertex 4 {m}
    151.892105711916,-1.10901259972858,0,  !- X,Y,Z ==> Vertex 5 {m}
    152.394370093366,5.33247813037668,0,  !- X,Y,Z ==> Vertex 6 {m}
    135.22904537001,6.66485847824845,0,  !- X,Y,Z ==> Vertex 7 {m}
    136.149893671274,18.2151162462172,0;  !- X,Y,Z ==> Vertex 8 {m}

  Shading:Building:Detailed,
    Shading Surface 32,      !- Name
    ,                        !- Transmittance Schedule Name
    ,                        !- Number of Vertices
    159.092780576854,16.4386222157279,12,  !- X,Y,Z ==> Vertex 1 {m}
    159.092780576854,16.4386222157279,0,  !- X,Y,Z ==> Vertex 2 {m}
    136.149893671274,18.2151162462172,0,  !- X,Y,Z ==> Vertex 3 {m}
    136.149893671274,18.2151162462172,12;  !- X,Y,Z ==> Vertex 4 {m}

  Shading:Building:Detailed,
    Shading Surface 33,      !- Name
    ,                        !- Transmittance Schedule Name
    ,                        !- Number of Vertices
    136.149893671274,18.2151162462172,12,  !- X,Y,Z ==> Vertex 1 {m}
    135.22904537001,6.66485847824845,12,  !- X,Y,Z ==> Vertex 2 {m}
    152.394370093366,5.33247813037668,12,  !- X,Y,Z ==> Vertex 3 {m}
    151.892105711916,-1.10901259972858,12,  !- X,Y,Z ==> Vertex 4 {m}
    161.940112385078,-1.886215650859,12,  !- X,Y,Z ==> Vertex 5 {m}
    162.693485398512,8.22026153228983,12,  !- X,Y,Z ==> Vertex 6 {m}
    158.506821277363,8.55334901941742,12,  !- X,Y,Z ==> Vertex 7 {m}
    159.092780576854,16.4386222157279,12;  !- X,Y,Z ==> Vertex 8 {m}

  Shading:Building:Detailed,
    Shading Surface 34,      !- Name
    ,                        !- Transmittance Schedule Name
    ,                        !- Number of Vertices
    151.892105711916,-1.10901259972858,12,  !- X,Y,Z ==> Vertex 1 {m}
    151.892105711916,-1.10901259972858,0,  !- X,Y,Z ==> Vertex 2 {m}
    161.940112385078,-1.886215650859,0,  !- X,Y,Z ==> Vertex 3 {m}
    161.940112385078,-1.886215650859,12;  !- X,Y,Z ==> Vertex 4 {m}

  Shading:Building:Detailed,
    Shading Surface 35,      !- Name
    ,                        !- Transmittance Schedule Name
    ,                        !- Number of Vertices
    161.940112385078,-1.886215650859,12,  !- X,Y,Z ==> Vertex 1 {m}
    161.940112385078,-1.886215650859,0,  !- X,Y,Z ==> Vertex 2 {m}
    162.693485398512,8.22026153228983,0,  !- X,Y,Z ==> Vertex 3 {m}
    162.693485398512,8.22026153228983,12;  !- X,Y,Z ==> Vertex 4 {m}

  Shading:Building:Detailed,
    Shading Surface 36,      !- Name
    ,                        !- Transmittance Schedule Name
    ,                        !- Number of Vertices
    158.506821277363,8.55334901941742,12,  !- X,Y,Z ==> Vertex 1 {m}
    158.506821277363,8.55334901941742,0,  !- X,Y,Z ==> Vertex 2 {m}
    159.092780576854,16.4386222157279,0,  !- X,Y,Z ==> Vertex 3 {m}
    159.092780576854,16.4386222157279,12;  !- X,Y,Z ==> Vertex 4 {m}

  Shading:Building:Detailed,
    Shading Surface 37,      !- Name
    ,                        !- Transmittance Schedule Name
    ,                        !- Number of Vertices
    162.693485398512,8.22026153228983,12,  !- X,Y,Z ==> Vertex 1 {m}
    162.693485398512,8.22026153228983,0,  !- X,Y,Z ==> Vertex 2 {m}
    158.506821277363,8.55334901941742,0,  !- X,Y,Z ==> Vertex 3 {m}
    158.506821277363,8.55334901941742,12;  !- X,Y,Z ==> Vertex 4 {m}

  Shading:Building:Detailed,
    Shading Surface 38,      !- Name
    ,                        !- Transmittance Schedule Name
    ,                        !- Number of Vertices
    152.394370093366,5.33247813037668,12,  !- X,Y,Z ==> Vertex 1 {m}
    152.394370093366,5.33247813037668,0,  !- X,Y,Z ==> Vertex 2 {m}
    151.892105711916,-1.10901259972858,0,  !- X,Y,Z ==> Vertex 3 {m}
    151.892105711916,-1.10901259972858,12;  !- X,Y,Z ==> Vertex 4 {m}

  Shading:Building:Detailed,
    Shading Surface 39,      !- Name
    ,                        !- Transmittance Schedule Name
    ,                        !- Number of Vertices
    136.149893671274,18.2151162462172,12,  !- X,Y,Z ==> Vertex 1 {m}
    136.149893671274,18.2151162462172,0,  !- X,Y,Z ==> Vertex 2 {m}
    135.22904537001,6.66485847824845,0,  !- X,Y,Z ==> Vertex 3 {m}
    135.22904537001,6.66485847824845,12;  !- X,Y,Z ==> Vertex 4 {m}

  Shading:Building:Detailed,
    Shading Surface 40,      !- Name
    ,                        !- Transmittance Schedule Name
    ,                        !- Number of Vertices
    135.22904537001,6.66485847824845,12,  !- X,Y,Z ==> Vertex 1 {m}
    135.22904537001,6.66485847824845,0,  !- X,Y,Z ==> Vertex 2 {m}
    152.394370093366,5.33247813037668,0,  !- X,Y,Z ==> Vertex 3 {m}
    152.394370093366,5.33247813037668,12;  !- X,Y,Z ==> Vertex 4 {m}

  Shading:Building:Detailed,
    Shading Surface 41,      !- Name
    ,                        !- Transmittance Schedule Name
    ,                        !- Number of Vertices
    169.475571635892,20.9923172151952,12,  !- X,Y,Z ==> Vertex 1 {m}
    169.475571635892,20.9923172151952,0,  !- X,Y,Z ==> Vertex 2 {m}
    169.141174774495,-1.99711161117548,0,  !- X,Y,Z ==> Vertex 3 {m}
    169.141174774495,-1.99711161117548,12;  !- X,Y,Z ==> Vertex 4 {m}

  Shading:Building:Detailed,
    Shading Surface 42,      !- Name
    ,                        !- Transmittance Schedule Name
    ,                        !- Number of Vertices
    177.179569942792,-2.10798006830923,12,  !- X,Y,Z ==> Vertex 1 {m}
    177.179569942792,-2.10798006830923,0,  !- X,Y,Z ==> Vertex 2 {m}
    177.597674371308,20.8814511700914,0,  !- X,Y,Z ==> Vertex 3 {m}
    177.597674371308,20.8814511700914,12;  !- X,Y,Z ==> Vertex 4 {m}

  Shading:Building:Detailed,
    Shading Surface 43,      !- Name
    ,                        !- Transmittance Schedule Name
    ,                        !- Number of Vertices
    169.475571635892,20.9923172151952,12,  !- X,Y,Z ==> Vertex 1 {m}
    169.141174774495,-1.99711161117548,12,  !- X,Y,Z ==> Vertex 2 {m}
    177.179569942792,-2.10798006830923,12,  !- X,Y,Z ==> Vertex 3 {m}
    177.597674371308,20.8814511700914,12;  !- X,Y,Z ==> Vertex 4 {m}

  Shading:Building:Detailed,
    Shading Surface 44,      !- Name
    ,                        !- Transmittance Schedule Name
    ,                        !- Number of Vertices
    177.597674371308,20.8814511700914,12,  !- X,Y,Z ==> Vertex 1 {m}
    177.597674371308,20.8814511700914,0,  !- X,Y,Z ==> Vertex 2 {m}
    169.475571635892,20.9923172151952,0,  !- X,Y,Z ==> Vertex 3 {m}
    169.475571635892,20.9923172151952,12;  !- X,Y,Z ==> Vertex 4 {m}

  Shading:Building:Detailed,
    Shading Surface 45,      !- Name
    ,                        !- Transmittance Schedule Name
    ,                        !- Number of Vertices
    169.141174774495,-1.99711161117548,12,  !- X,Y,Z ==> Vertex 1 {m}
    169.141174774495,-1.99711161117548,0,  !- X,Y,Z ==> Vertex 2 {m}
    177.179569942792,-2.10798006830923,0,  !- X,Y,Z ==> Vertex 3 {m}
    177.179569942792,-2.10798006830923,12;  !- X,Y,Z ==> Vertex 4 {m}

  Shading:Building:Detailed,
    Shading Surface 46,      !- Name
    ,                        !- Transmittance Schedule Name
    ,                        !- Number of Vertices
    177.597674371308,20.8814511700914,0,  !- X,Y,Z ==> Vertex 1 {m}
    177.179569942792,-2.10798006830923,0,  !- X,Y,Z ==> Vertex 2 {m}
    169.141174774495,-1.99711161117548,0,  !- X,Y,Z ==> Vertex 3 {m}
    169.475571635892,20.9923172151952,0;  !- X,Y,Z ==> Vertex 4 {m}

  Shading:Building:Detailed,
    Shading Surface 47,      !- Name
    ,                        !- Transmittance Schedule Name
    ,                        !- Number of Vertices
    205.568027783489,-104.060307039866,12,  !- X,Y,Z ==> Vertex 1 {m}
    205.568027783489,-104.060307039866,0,  !- X,Y,Z ==> Vertex 2 {m}
    204.731212245206,-122.829467887785,0,  !- X,Y,Z ==> Vertex 3 {m}
    204.731212245206,-122.829467887785,12;  !- X,Y,Z ==> Vertex 4 {m}

  Shading:Building:Detailed,
    Shading Surface 48,      !- Name
    ,                        !- Transmittance Schedule Name
    ,                        !- Number of Vertices
    211.345435426303,-94.8421624733054,12,  !- X,Y,Z ==> Vertex 1 {m}
    210.927037802472,-104.282273439417,12,  !- X,Y,Z ==> Vertex 2 {m}
    205.568027783489,-104.060307039866,12,  !- X,Y,Z ==> Vertex 3 {m}
    204.731212245206,-122.829467887785,12,  !- X,Y,Z ==> Vertex 4 {m}
    208.331805253962,-122.940425538472,12,  !- X,Y,Z ==> Vertex 5 {m}
    207.327581978977,-143.708670535917,12,  !- X,Y,Z ==> Vertex 6 {m}
    219.217952776937,-144.263621467266,12,  !- X,Y,Z ==> Vertex 7 {m}
    219.887425317288,-130.825343737012,12,  !- X,Y,Z ==> Vertex 8 {m}
    239.56511831925,-131.713201521103,12,  !- X,Y,Z ==> Vertex 9 {m}
    240.150839502076,-118.941284315324,12,  !- X,Y,Z ==> Vertex 10 {m}
    217.96114325063,-118.053503878511,12,  !- X,Y,Z ==> Vertex 11 {m}
    218.965269003655,-95.1751168300081,12;  !- X,Y,Z ==> Vertex 12 {m}

  Shading:Building:Detailed,
    Shading Surface 49,      !- Name
    ,                        !- Transmittance Schedule Name
    ,                        !- Number of Vertices
    218.965269003655,-95.1751168300081,12,  !- X,Y,Z ==> Vertex 1 {m}
    218.965269003655,-95.1751168300081,0,  !- X,Y,Z ==> Vertex 2 {m}
    211.345435426303,-94.8421624733054,0,  !- X,Y,Z ==> Vertex 3 {m}
    211.345435426303,-94.8421624733054,12;  !- X,Y,Z ==> Vertex 4 {m}

  Shading:Building:Detailed,
    Shading Surface 50,      !- Name
    ,                        !- Transmittance Schedule Name
    ,                        !- Number of Vertices
    218.965269003655,-95.1751168300081,0,  !- X,Y,Z ==> Vertex 1 {m}
    217.96114325063,-118.053503878511,0,  !- X,Y,Z ==> Vertex 2 {m}
    240.150839502076,-118.941284315324,0,  !- X,Y,Z ==> Vertex 3 {m}
    239.56511831925,-131.713201521103,0,  !- X,Y,Z ==> Vertex 4 {m}
    219.887425317288,-130.825343737012,0,  !- X,Y,Z ==> Vertex 5 {m}
    219.217952776937,-144.263621467266,0,  !- X,Y,Z ==> Vertex 6 {m}
    207.327581978977,-143.708670535917,0,  !- X,Y,Z ==> Vertex 7 {m}
    208.331805253962,-122.940425538472,0,  !- X,Y,Z ==> Vertex 8 {m}
    204.731212245206,-122.829467887785,0,  !- X,Y,Z ==> Vertex 9 {m}
    205.568027783489,-104.060307039866,0,  !- X,Y,Z ==> Vertex 10 {m}
    210.927037802472,-104.282273439417,0,  !- X,Y,Z ==> Vertex 11 {m}
    211.345435426303,-94.8421624733054,0;  !- X,Y,Z ==> Vertex 12 {m}

  Shading:Building:Detailed,
    Shading Surface 51,      !- Name
    ,                        !- Transmittance Schedule Name
    ,                        !- Number of Vertices
    219.217952776937,-144.263621467266,12,  !- X,Y,Z ==> Vertex 1 {m}
    219.217952776937,-144.263621467266,0,  !- X,Y,Z ==> Vertex 2 {m}
    219.887425317288,-130.825343737012,0,  !- X,Y,Z ==> Vertex 3 {m}
    219.887425317288,-130.825343737012,12;  !- X,Y,Z ==> Vertex 4 {m}

  Shading:Building:Detailed,
    Shading Surface 52,      !- Name
    ,                        !- Transmittance Schedule Name
    ,                        !- Number of Vertices
    208.331805253962,-122.940425538472,12,  !- X,Y,Z ==> Vertex 1 {m}
    208.331805253962,-122.940425538472,0,  !- X,Y,Z ==> Vertex 2 {m}
    207.327581978977,-143.708670535917,0,  !- X,Y,Z ==> Vertex 3 {m}
    207.327581978977,-143.708670535917,12;  !- X,Y,Z ==> Vertex 4 {m}

  Shading:Building:Detailed,
    Shading Surface 53,      !- Name
    ,                        !- Transmittance Schedule Name
    ,                        !- Number of Vertices
    217.96114325063,-118.053503878511,12,  !- X,Y,Z ==> Vertex 1 {m}
    217.96114325063,-118.053503878511,0,  !- X,Y,Z ==> Vertex 2 {m}
    218.965269003655,-95.1751168300081,0,  !- X,Y,Z ==> Vertex 3 {m}
    218.965269003655,-95.1751168300081,12;  !- X,Y,Z ==> Vertex 4 {m}

  Shading:Building:Detailed,
    Shading Surface 54,      !- Name
    ,                        !- Transmittance Schedule Name
    ,                        !- Number of Vertices
    239.56511831925,-131.713201521103,12,  !- X,Y,Z ==> Vertex 1 {m}
    239.56511831925,-131.713201521103,0,  !- X,Y,Z ==> Vertex 2 {m}
    240.150839502076,-118.941284315324,0,  !- X,Y,Z ==> Vertex 3 {m}
    240.150839502076,-118.941284315324,12;  !- X,Y,Z ==> Vertex 4 {m}

  Shading:Building:Detailed,
    Shading Surface 55,      !- Name
    ,                        !- Transmittance Schedule Name
    ,                        !- Number of Vertices
    240.150839502076,-118.941284315324,12,  !- X,Y,Z ==> Vertex 1 {m}
    240.150839502076,-118.941284315324,0,  !- X,Y,Z ==> Vertex 2 {m}
    217.96114325063,-118.053503878511,0,  !- X,Y,Z ==> Vertex 3 {m}
    217.96114325063,-118.053503878511,12;  !- X,Y,Z ==> Vertex 4 {m}

  Shading:Building:Detailed,
    Shading Surface 56,      !- Name
    ,                        !- Transmittance Schedule Name
    ,                        !- Number of Vertices
    204.731212245206,-122.829467887785,12,  !- X,Y,Z ==> Vertex 1 {m}
    204.731212245206,-122.829467887785,0,  !- X,Y,Z ==> Vertex 2 {m}
    208.331805253962,-122.940425538472,0,  !- X,Y,Z ==> Vertex 3 {m}
    208.331805253962,-122.940425538472,12;  !- X,Y,Z ==> Vertex 4 {m}

  Shading:Building:Detailed,
    Shading Surface 57,      !- Name
    ,                        !- Transmittance Schedule Name
    ,                        !- Number of Vertices
    219.887425317288,-130.825343737012,12,  !- X,Y,Z ==> Vertex 1 {m}
    219.887425317288,-130.825343737012,0,  !- X,Y,Z ==> Vertex 2 {m}
    239.56511831925,-131.713201521103,0,  !- X,Y,Z ==> Vertex 3 {m}
    239.56511831925,-131.713201521103,12;  !- X,Y,Z ==> Vertex 4 {m}

  Shading:Building:Detailed,
    Shading Surface 58,      !- Name
    ,                        !- Transmittance Schedule Name
    ,                        !- Number of Vertices
    210.927037802472,-104.282273439417,12,  !- X,Y,Z ==> Vertex 1 {m}
    210.927037802472,-104.282273439417,0,  !- X,Y,Z ==> Vertex 2 {m}
    205.568027783489,-104.060307039866,0,  !- X,Y,Z ==> Vertex 3 {m}
    205.568027783489,-104.060307039866,12;  !- X,Y,Z ==> Vertex 4 {m}

  Shading:Building:Detailed,
    Shading Surface 59,      !- Name
    ,                        !- Transmittance Schedule Name
    ,                        !- Number of Vertices
    207.327581978977,-143.708670535917,12,  !- X,Y,Z ==> Vertex 1 {m}
    207.327581978977,-143.708670535917,0,  !- X,Y,Z ==> Vertex 2 {m}
    219.217952776937,-144.263621467266,0,  !- X,Y,Z ==> Vertex 3 {m}
    219.217952776937,-144.263621467266,12;  !- X,Y,Z ==> Vertex 4 {m}

  Shading:Building:Detailed,
    Shading Surface 60,      !- Name
    ,                        !- Transmittance Schedule Name
    ,                        !- Number of Vertices
    211.345435426303,-94.8421624733054,12,  !- X,Y,Z ==> Vertex 1 {m}
    211.345435426303,-94.8421624733054,0,  !- X,Y,Z ==> Vertex 2 {m}
    210.927037802472,-104.282273439417,0,  !- X,Y,Z ==> Vertex 3 {m}
    210.927037802472,-104.282273439417,12;  !- X,Y,Z ==> Vertex 4 {m}

  Shading:Building:Detailed,
    Shading Surface 61,      !- Name
    ,                        !- Transmittance Schedule Name
    ,                        !- Number of Vertices
    -148.206934651004,43.4259741248949,12,  !- X,Y,Z ==> Vertex 1 {m}
    -148.206934651004,43.4259741248949,0,  !- X,Y,Z ==> Vertex 2 {m}
    -148.542026760915,35.5407202402487,0,  !- X,Y,Z ==> Vertex 3 {m}
    -148.542026760915,35.5407202402487,12;  !- X,Y,Z ==> Vertex 4 {m}

  Shading:Building:Detailed,
    Shading Surface 62,      !- Name
    ,                        !- Transmittance Schedule Name
    ,                        !- Number of Vertices
    -148.542026760915,35.5407202402487,12,  !- X,Y,Z ==> Vertex 1 {m}
    -148.542026760915,35.5407202402487,0,  !- X,Y,Z ==> Vertex 2 {m}
    -136.903172834656,35.0962516121385,0,  !- X,Y,Z ==> Vertex 3 {m}
    -136.903172834656,35.0962516121385,12;  !- X,Y,Z ==> Vertex 4 {m}

  Shading:Building:Detailed,
    Shading Surface 63,      !- Name
    ,                        !- Transmittance Schedule Name
    ,                        !- Number of Vertices
    -136.568095419702,42.8704460164341,12,  !- X,Y,Z ==> Vertex 1 {m}
    -136.568095419702,42.8704460164341,0,  !- X,Y,Z ==> Vertex 2 {m}
    -148.206934651004,43.4259741248949,0,  !- X,Y,Z ==> Vertex 3 {m}
    -148.206934651004,43.4259741248949,12;  !- X,Y,Z ==> Vertex 4 {m}

  Shading:Building:Detailed,
    Shading Surface 64,      !- Name
    ,                        !- Transmittance Schedule Name
    ,                        !- Number of Vertices
    -136.903172834656,35.0962516121385,12,  !- X,Y,Z ==> Vertex 1 {m}
    -136.903172834656,35.0962516121385,0,  !- X,Y,Z ==> Vertex 2 {m}
    -136.568095419702,42.8704460164341,0,  !- X,Y,Z ==> Vertex 3 {m}
    -136.568095419702,42.8704460164341,12;  !- X,Y,Z ==> Vertex 4 {m}

  Shading:Building:Detailed,
    Shading Surface 65,      !- Name
    ,                        !- Transmittance Schedule Name
    ,                        !- Number of Vertices
    -136.568095419702,42.8704460164341,0,  !- X,Y,Z ==> Vertex 1 {m}
    -136.903172834656,35.0962516121385,0,  !- X,Y,Z ==> Vertex 2 {m}
    -148.542026760915,35.5407202402487,0,  !- X,Y,Z ==> Vertex 3 {m}
    -148.206934651004,43.4259741248949,0;  !- X,Y,Z ==> Vertex 4 {m}

  Shading:Building:Detailed,
    Shading Surface 66,      !- Name
    ,                        !- Transmittance Schedule Name
    ,                        !- Number of Vertices
    -148.206934651004,43.4259741248949,12,  !- X,Y,Z ==> Vertex 1 {m}
    -148.542026760915,35.5407202402487,12,  !- X,Y,Z ==> Vertex 2 {m}
    -136.903172834656,35.0962516121385,12,  !- X,Y,Z ==> Vertex 3 {m}
    -136.568095419702,42.8704460164341,12;  !- X,Y,Z ==> Vertex 4 {m}

  Shading:Building:Detailed,
    Shading Surface 67,      !- Name
    ,                        !- Transmittance Schedule Name
    ,                        !- Number of Vertices
    -59.868816063571,53.9754105188327,12,  !- X,Y,Z ==> Vertex 1 {m}
    -59.868816063571,53.9754105188327,0,  !- X,Y,Z ==> Vertex 2 {m}