  ConvergenceLimits,
    0,                       !- Minimum System Timestep {minutes}
    25;                      !- Maximum HVAC Iterations

  Version,23.1;

  Timestep,1;

  LifeCycleCost:Parameters,
    Life Cycle Cost Parameters,  !- Name
    EndOfYear,               !- Discounting Convention
    ConstantDollar,          !- Inflation Approach
    0.03,                    !- Real Discount Rate
    ,                        !- Nominal Discount Rate
    ,                        !- Inflation
    ,                        !- Base Date Month
    2011,                    !- Base Date Year
    ,                        !- Service Date Month
    2011,                    !- Service Date Year
    25,                      !- Length of Study Period in Years
    ,                        !- Tax rate
    None;                    !- Depreciation Method

  LifeCycleCost:UsePriceEscalation,
    U.S. Avg  Commercial-Electricity,  !- LCC Price Escalation Name
    Electricity,             !- Resource
    2011,                    !- Escalation Start Year
    January,                 !- Escalation Start Month
    0.9838,                  !- Year 1 Escalation
    0.9730,                  !- Year 2 Escalation
    0.9632,                  !- Year 3 Escalation
    0.9611,                  !- Year 4 Escalation
    0.9571,                  !- Year 5 Escalation
    0.9553,                  !- Year 6 Escalation
    0.9539,                  !- Year 7 Escalation
    0.9521,                  !- Year 8 Escalation
    0.9546,                  !- Year 9 Escalation
    0.9550,                  !- <none>
    0.9553,                  !- <none>
    0.9564,                  !- <none>
    0.9575,                  !- <none>
    0.9596,                  !- <none>
    0.9618,                  !- <none>
    0.9614,                  !- <none>
    0.9618,                  !- <none>
    0.9618,                  !- <none>
    0.9593,                  !- <none>
    0.9589,                  !- <none>
    0.9607,                  !- <none>
    0.9625,                  !- <none>
    0.9650,                  !- <none>
    0.9708,                  !- <none>
    0.9751,                  !- <none>
    0.9762,                  !- <none>
    0.9766,                  !- <none>
    0.9766,                  !- <none>
    0.9769,                  !- <none>
    0.9773;                  !- <none>

  LifeCycleCost:UsePriceEscalation,
    U.S. Avg  Commercial-Distillate Oil,  !- LCC Price Escalation Name
    FuelOilNo1,              !- Resource
    2011,                    !- Escalation Start Year
    January,                 !- Escalation Start Month
    0.9714,                  !- Year 1 Escalation
    0.9730,                  !- Year 2 Escalation
    0.9942,                  !- Year 3 Escalation
    1.0164,                  !- Year 4 Escalation
    1.0541,                  !- Year 5 Escalation
    1.0928,                  !- Year 6 Escalation
    1.1267,                  !- Year 7 Escalation
    1.1580,                  !- Year 8 Escalation
    1.1792,                  !- Year 9 Escalation
    1.1967,                  !- <none>
    1.2200,                  !- <none>
    1.2333,                  !- <none>
    1.2566,                  !- <none>
    1.2709,                  !- <none>
    1.2826,                  !- <none>
    1.2985,                  !- <none>
    1.3102,                  !- <none>
    1.3250,                  !- <none>
    1.3261,                  !- <none>
    1.3282,                  !- <none>
    1.3324,                  !- <none>
    1.3356,                  !- <none>
    1.3431,                  !- <none>
    1.3510,                  !- <none>
    1.3568,                  !- <none>
    1.3606,                  !- <none>
    1.3637,                  !- <none>
    1.3674,                  !- <none>
    1.3706,                  !- <none>
    1.3743;                  !- <none>

  LifeCycleCost:UsePriceEscalation,
    U.S. Avg  Commercial-Residual Oil,  !- LCC Price Escalation Name
    FuelOilNo2,              !- Resource
    2011,                    !- Escalation Start Year
    January,                 !- Escalation Start Month
    0.8469,                  !- Year 1 Escalation
    0.8257,                  !- Year 2 Escalation
    0.8681,                  !- Year 3 Escalation
    0.8988,                  !- Year 4 Escalation
    0.9289,                  !- Year 5 Escalation
    0.9604,                  !- Year 6 Escalation
    0.9897,                  !- Year 7 Escalation
    1.0075,                  !- Year 8 Escalation
    1.0314,                  !- Year 9 Escalation
    1.0554,                  !- <none>
    1.0861,                  !- <none>
    1.1278,                  !- <none>
    1.1497,                  !- <none>
    1.1620,                  !- <none>
    1.1743,                  !- <none>
    1.1852,                  !- <none>
    1.1948,                  !- <none>
    1.2037,                  !- <none>
    1.2071,                  !- <none>
    1.2119,                  !- <none>
    1.2139,                  !- <none>
    1.2194,                  !- <none>
    1.2276,                  !- <none>
    1.2365,                  !- <none>
    1.2420,                  !- <none>
    1.2461,                  !- <none>
    1.2509,                  !- <none>
    1.2550,                  !- <none>
    1.2591,                  !- <none>
    1.2638;                  !- <none>

  LifeCycleCost:UsePriceEscalation,
    U.S. Avg  Commercial-Natural gas,  !- LCC Price Escalation Name
    NaturalGas,              !- Resource
    2011,                    !- Escalation Start Year
    January,                 !- Escalation Start Month
    0.9823,                  !- Year 1 Escalation
    0.9557,                  !- Year 2 Escalation
    0.9279,                  !- Year 3 Escalation
    0.9257,                  !- Year 4 Escalation
    0.9346,                  !- Year 5 Escalation
    0.9412,                  !- Year 6 Escalation
    0.9512,                  !- Year 7 Escalation
    0.9645,                  !- Year 8 Escalation
    0.9856,                  !- Year 9 Escalation
    1.0067,                  !- <none>
    1.0222,                  !- <none>
    1.0410,                  !- <none>
    1.0610,                  !- <none>
    1.0787,                  !- <none>
    1.0942,                  !- <none>
    1.1098,                  !- <none>
    1.1220,                  !- <none>
    1.1308,                  !- <none>
    1.1386,                  !- <none>
    1.1486,                  !- <none>
    1.1619,                  !- <none>
    1.1763,                  !- <none>
    1.1918,                  !- <none>
    1.2118,                  !- <none>
    1.2284,                  !- <none>
    1.2439,                  !- <none>
    1.2605,                  !- <none>
    1.2772,                  !- <none>
    1.2938,                  !- <none>
    1.3115;                  !- <none>

  LifeCycleCost:UsePriceEscalation,
    U.S. Avg  Commercial-Coal,  !- LCC Price Escalation Name
    Coal,                    !- Resource
    2011,                    !- Escalation Start Year
    January,                 !- Escalation Start Month
    0.9970,                  !- Year 1 Escalation
    1.0089,                  !- Year 2 Escalation
    1.0089,                  !- Year 3 Escalation
    0.9941,                  !- Year 4 Escalation
    0.9941,                  !- Year 5 Escalation
    1.0000,                  !- Year 6 Escalation
    1.0030,                  !- Year 7 Escalation
    1.0059,                  !- Year 8 Escalation
    1.0089,                  !- Year 9 Escalation
    1.0119,                  !- <none>
    1.0148,                  !- <none>
    1.0178,                  !- <none>
    1.0208,                  !- <none>
    1.0267,                  !- <none>
    1.0297,                  !- <none>
    1.0356,                  !- <none>
    1.0415,                  !- <none>
    1.0534,                  !- <none>
    1.0564,                  !- <none>
    1.0593,                  !- <none>
    1.0653,                  !- <none>
    1.0712,                  !- <none>
    1.0742,                  !- <none>
    1.0801,                  !- <none>
    1.0831,                  !- <none>
    1.0831,                  !- <none>
    1.0861,                  !- <none>
    1.0890,                  !- <none>
    1.0920,                  !- <none>
    1.0950;                  !- <none>

  Building,
    bld_18,                  !- Name
    ,                        !- North Axis {deg}
    City,                    !- Terrain
    ,                        !- Loads Convergence Tolerance Value {W}
    ,                        !- Temperature Convergence Tolerance Value {deltaC}
    ,                        !- Solar Distribution
    ,                        !- Maximum Number of Warmup Days
    ;                        !- Minimum Number of Warmup Days

  Shading:Building:Detailed,
    Shading Surface 1,       !- Name
    ,                        !- Transmittance Schedule Name
    ,                        !- Number of Vertices
    -200.95938775751,15.4401192993475,12,  !- X,Y,Z ==> Vertex 1 {m}
    -200.95938775751,15.4401192993475,0,  !- X,Y,Z ==> Vertex 2 {m}
    -192.334886583548,15.2177659012726,0,  !- X,Y,Z ==> Vertex 3 {m}
    -192.334886583548,15.2177659012726,12;  !- X,Y,Z ==> Vertex 4 {m}

  Shading:Building:Detailed,
    Shading Surface 2,       !- Name
    ,                        !- Transmittance Schedule Name
    ,                        !- Number of Vertices
    -191.748259756233,33.9868916281331,12,  !- X,Y,Z ==> Vertex 1 {m}
    -191.748259756233,33.9868916281331,0,  !- X,Y,Z ==> Vertex 2 {m}
    -200.372738673399,34.2092443363182,0,  !- X,Y,Z ==> Vertex 3 {m}
    -200.372738673399,34.2092443363182,12;  !- X,Y,Z ==> Vertex 4 {m}

  Shading:Building:Detailed,
    Shading Surface 3,       !- Name
    ,                        !- Transmittance Schedule Name
    ,                        !- Number of Vertices
    -200.372738673399,34.2092443363182,12,  !- X,Y,Z ==> Vertex 1 {m}
    -200.372738673399,34.2092443363182,0,  !- X,Y,Z ==> Vertex 2 {m}
    -200.95938775751,15.4401192993475,0,  !- X,Y,Z ==> Vertex 3 {m}
    -200.95938775751,15.4401192993475,12;  !- X,Y,Z ==> Vertex 4 {m}

  Shading:Building:Detailed,
    Shading Surface 4,       !- Name
    ,                        !- Transmittance Schedule Name
    ,                        !- Number of Vertices
    -192.334886583548,15.2177659012726,12,  !- X,Y,Z ==> Vertex 1 {m}
    -192.334886583548,15.2177659012726,0,  !- X,Y,Z ==> Vertex 2 {m}
    -191.748259756233,33.9868916281331,0,  !- X,Y,Z ==> Vertex 3 {m}
    -191.748259756233,33.9868916281331,12;  !- X,Y,Z ==> Vertex 4 {m}

  Shading:Building:Detailed,
    Shading Surface 5,       !- Name
    ,                        !- Transmittance Schedule Name
    ,                        !- Number of Vertices
    -200.372738673399,34.2092443363182,12,  !- X,Y,Z ==> Vertex 1 {m}
    -200.95938775751,15.4401192993475,12,  !- X,Y,Z ==> Vertex 2 {m}
    -192.334886583548,15.2177659012726,12,  !- X,Y,Z ==> Vertex 3 {m}
    -191.748259756233,33.9868916281331,12;  !- X,Y,Z ==> Vertex 4 {m}

  Shading:Building:Detailed,
    Shading Surface 6,       !- Name
    ,                        !- Transmittance Schedule Name
    ,                        !- Number of Vertices
    -191.748259756233,33.9868916281331,0,  !- X,Y,Z ==> Vertex 1 {m}
    -192.334886583548,15.2177659012726,0,  !- X,Y,Z ==> Vertex 2 {m}
    -200.95938775751,15.4401192993475,0,  !- X,Y,Z ==> Vertex 3 {m}
    -200.372738673399,34.2092443363182,0;  !- X,Y,Z ==> Vertex 4 {m}

  Shading:Building:Detailed,
    Shading Surface 33,      !- Name
    ,                        !- Transmittance Schedule Name
    ,                        !- Number of Vertices
    -17.2490483921726,0.999560499573548,12,  !- X,Y,Z ==> Vertex 1 {m}
    -17.2490483921726,0.999560499573548,0,  !- X,Y,Z ==> Vertex 2 {m}
    -7.201059808684,0.222123572983012,0,  !- X,Y,Z ==> Vertex 3 {m}
    -7.201059808684,0.222123572983012,12;  !- X,Y,Z ==> Vertex 4 {m}

  Shading:Building:Detailed,
    Shading Surface 34,      !- Name
    ,                        !- Transmittance Schedule Name
    ,                        !- Number of Vertices
    -32.9908106478583,20.3240557522848,12,  !- X,Y,Z ==> Vertex 1 {m}
    -32.9908106478583,20.3240557522848,0,  !- X,Y,Z ==> Vertex 2 {m}
    -33.9119277907272,8.77381942026659,0,  !- X,Y,Z ==> Vertex 3 {m}
    -33.9119277907272,8.77381942026659,12;  !- X,Y,Z ==> Vertex 4 {m}

  Shading:Building:Detailed,
    Shading Surface 35,      !- Name
    ,                        !- Transmittance Schedule Name
    ,                        !- Number of Vertices
    -6.44745155911488,10.3285832183427,12,  !- X,Y,Z ==> Vertex 1 {m}
    -6.44745155911488,10.3285832183427,0,  !- X,Y,Z ==> Vertex 2 {m}
    -10.634107927572,10.6617681535386,0,  !- X,Y,Z ==> Vertex 3 {m}
    -10.634107927572,10.6617681535386,12;  !- X,Y,Z ==> Vertex 4 {m}

  Shading:Building:Detailed,
    Shading Surface 36,      !- Name
    ,                        !- Transmittance Schedule Name
    ,                        !- Number of Vertices
    -33.9119277907272,8.77381942026659,12,  !- X,Y,Z ==> Vertex 1 {m}
    -33.9119277907272,8.77381942026659,0,  !- X,Y,Z ==> Vertex 2 {m}
    -16.7466340800365,7.44103953734554,0,  !- X,Y,Z ==> Vertex 3 {m}
    -16.7466340800365,7.44103953734554,12;  !- X,Y,Z ==> Vertex 4 {m}

  Shading:Building:Detailed,
    Shading Surface 37,      !- Name
    ,                        !- Transmittance Schedule Name
    ,                        !- Number of Vertices
    -10.0479650918824,18.5470277090568,0,  !- X,Y,Z ==> Vertex 1 {m}
    -10.634107927572,10.6617681535386,0,  !- X,Y,Z ==> Vertex 2 {m}
    -6.44745155911488,10.3285832183427,0,  !- X,Y,Z ==> Vertex 3 {m}
    -7.201059808684,0.222123572983012,0,  !- X,Y,Z ==> Vertex 4 {m}
    -17.2490483921726,0.999560499573548,0,  !- X,Y,Z ==> Vertex 5 {m}
    -16.7466340800365,7.44103953734554,0,  !- X,Y,Z ==> Vertex 6 {m}
    -33.9119277907272,8.77381942026659,0,  !- X,Y,Z ==> Vertex 7 {m}
    -32.9908106478583,20.3240557522848,0;  !- X,Y,Z ==> Vertex 8 {m}

  Shading:Building:Detailed,
    Shading Surface 38,      !- Name
    ,                        !- Transmittance Schedule Name
    ,                        !- Number of Vertices
    -32.9908106478583,20.3240557522848,12,  !- X,Y,Z ==> Vertex 1 {m}
    -33.9119277907272,8.77381942026659,12,  !- X,Y,Z ==> Vertex 2 {m}
    -16.7466340800365,7.44103953734554,12,  !- X,Y,Z ==> Vertex 3 {m}
    -17.2490483921726,0.999560499573548,12,  !- X,Y,Z ==> Vertex 4 {m}
    -7.201059808684,0.222123572983012,12,  !- X,Y,Z ==> Vertex 5 {m}
    -6.44745155911488,10.3285832183427,12,  !- X,Y,Z ==> Vertex 6 {m}
    -10.634107927572,10.6617681535386,12,  !- X,Y,Z ==> Vertex 7 {m}
    -10.0479650918824,18.5470277090568,12;  !- X,Y,Z ==> Vertex 8 {m}

  Shading:Building:Detailed,
    Shading Surface 39,      !- Name
    ,                        !- Transmittance Schedule Name
    ,                        !- Number of Vertices
    -7.201059808684,0.222123572983012,12,  !- X,Y,Z ==> Vertex 1 {m}
    -7.201059808684,0.222123572983012,0,  !- X,Y,Z ==> Vertex 2 {m}
    -6.44745155911488,10.3285832183427,0,  !- X,Y,Z ==> Vertex 3 {m}
    -6.44745155911488,10.3285832183427,12;  !- X,Y,Z ==> Vertex 4 {m}

  Shading:Building:Detailed,
    Shading Surface 40,      !- Name
    ,                        !- Transmittance Schedule Name
    ,                        !- Number of Vertices
    -10.634107927572,10.6617681535386,12,  !- X,Y,Z ==> Vertex 1 {m}
    -10.634107927572,10.6617681535386,0,  !- X,Y,Z ==> Vertex 2 {m}
    -10.0479650918824,18.5470277090568,0,  !- X,Y,Z ==> Vertex 3 {m}
    -10.0479650918824,18.5470277090568,12;  !- X,Y,Z ==> Vertex 4 {m}

  Shading:Building:Detailed,
    Shading Surface 41,      !- Name
    ,                        !- Transmittance Schedule Name
    ,                        !- Number of Vertices
    -10.0479650918824,18.5470277090568,12,  !- X,Y,Z ==> Vertex 1 {m}
    -10.0479650918824,18.5470277090568,0,  !- X,Y,Z ==> Vertex 2 {m}
    -32.9908106478583,20.3240557522848,0,  !- X,Y,Z ==> Vertex 3 {m}
    -32.9908106478583,20.3240557522848,12;  !- X,Y,Z ==> Vertex 4 {m}

  Shading:Building:Detailed,
    Shading Surface 42,      !- Name
    ,                        !- Transmittance Schedule Name
    ,                        !- Number of Vertices
    -16.7466340800365,7.44103953734554,12,  !- X,Y,Z ==> Vertex 1 {m}
    -16.7466340800365,7.44103953734554,0,  !- X,Y,Z ==> Vertex 2 {m}
    -17.2490483921726,0.999560499573548,0,  !- X,Y,Z ==> Vertex 3 {m}
    -17.2490483921726,0.999560499573548,12;  !- X,Y,Z ==> Vertex 4 {m}

  Shading:Building:Detailed,
    Shading Surface 43,      !- Name
    ,                        !- Transmittance Schedule Name
    ,                        !- Number of Vertices
    49.8219254674877,-93.0681048841168,12,  !- X,Y,Z ==> Vertex 1 {m}
    49.8219254674877,-93.0681048841168,0,  !- X,Y,Z ==> Vertex 2 {m}
    42.2020996379608,-92.73497317062,0,  !- X,Y,Z ==> Vertex 3 {m}
    42.2020996379608,-92.73497317062,12;  !- X,Y,Z ==> Vertex 4 {m}

  Shading:Building:Detailed,
    Shading Surface 44,      !- Name
    ,                        !- Transmittance Schedule Name
    ,                        !- Number of Vertices
    71.0069428077853,-116.83476547419,12,  !- X,Y,Z ==> Vertex 1 {m}
    71.0069428077853,-116.83476547419,0,  !- X,Y,Z ==> Vertex 2 {m}
    48.8172672126147,-115.946468555342,0,  !- X,Y,Z ==> Vertex 3 {m}
    48.8172672126147,-115.946468555342,12;  !- X,Y,Z ==> Vertex 4 {m}

  Shading:Building:Detailed,
    Shading Surface 45,      !- Name
    ,                        !- Transmittance Schedule Name
    ,                        !- Number of Vertices
    48.8172672126147,-115.946468555342,12,  !- X,Y,Z ==> Vertex 1 {m}
    48.8172672126147,-115.946468555342,0,  !- X,Y,Z ==> Vertex 2 {m}
    49.8219254674877,-93.0681048841168,0,  !- X,Y,Z ==> Vertex 3 {m}
    49.8219254674877,-93.0681048841168,12;  !- X,Y,Z ==> Vertex 4 {m}

  Shading:Building:Detailed,
    Shading Surface 46,      !- Name
    ,                        !- Transmittance Schedule Name
    ,                        !- Number of Vertices
    50.0734666930437,-142.156615390382,12,  !- X,Y,Z ==> Vertex 1 {m}
    50.0734666930437,-142.156615390382,0,  !- X,Y,Z ==> Vertex 2 {m}
    50.7432520120924,-128.71835324616,0,  !- X,Y,Z ==> Vertex 3 {m}
    50.7432520120924,-128.71835324616,12;  !- X,Y,Z ==> Vertex 4 {m}

  Shading:Building:Detailed,
    Shading Surface 47,      !- Name
    ,                        !- Transmittance Schedule Name
    ,                        !- Number of Vertices
    38.1831088085617,-141.601387702308,12,  !- X,Y,Z ==> Vertex 1 {m}
    38.1831088085617,-141.601387702308,0,  !- X,Y,Z ==> Vertex 2 {m}
    50.0734666930437,-142.156615390382,0,  !- X,Y,Z ==> Vertex 3 {m}
    50.0734666930437,-142.156615390382,12;  !- X,Y,Z ==> Vertex 4 {m}

  Shading:Building:Detailed,
    Shading Surface 48,      !- Name
    ,                        !- Transmittance Schedule Name
    ,                        !- Number of Vertices
    39.1878154690575,-120.833166084413,12,  !- X,Y,Z ==> Vertex 1 {m}
    39.1878154690575,-120.833166084413,0,  !- X,Y,Z ==> Vertex 2 {m}
    38.1831088085617,-141.601387702308,0,  !- X,Y,Z ==> Vertex 3 {m}
    38.1831088085617,-141.601387702308,12;  !- X,Y,Z ==> Vertex 4 {m}

  Shading:Building:Detailed,
    Shading Surface 49,      !- Name
    ,                        !- Transmittance Schedule Name
    ,                        !- Number of Vertices
    41.7834822921289,-102.175074395697,12,  !- X,Y,Z ==> Vertex 1 {m}
    41.7834822921289,-102.175074395697,0,  !- X,Y,Z ==> Vertex 2 {m}
    36.4244774381918,-101.952983261136,0,  !- X,Y,Z ==> Vertex 3 {m}
    36.4244774381918,-101.952983261136,12;  !- X,Y,Z ==> Vertex 4 {m}

  Shading:Building:Detailed,
    Shading Surface 50,      !- Name
    ,                        !- Transmittance Schedule Name
    ,                        !- Number of Vertices
    50.7432520120924,-128.71835324616,12,  !- X,Y,Z ==> Vertex 1 {m}
    50.7432520120924,-128.71835324616,0,  !- X,Y,Z ==> Vertex 2 {m}
    70.4209243554812,-129.60666904344,0,  !- X,Y,Z ==> Vertex 3 {m}
    70.4209243554812,-129.60666904344,12;  !- X,Y,Z ==> Vertex 4 {m}

  Shading:Building:Detailed,
    Shading Surface 51,      !- Name
    ,                        !- Transmittance Schedule Name
    ,                        !- Number of Vertices
    49.8219254674877,-93.0681048841168,0,  !- X,Y,Z ==> Vertex 1 {m}
    48.8172672126147,-115.946468555342,0,  !- X,Y,Z ==> Vertex 2 {m}
    71.0069428077853,-116.83476547419,0,  !- X,Y,Z ==> Vertex 3 {m}
    70.4209243554812,-129.60666904344,0,  !- X,Y,Z ==> Vertex 4 {m}
    50.7432520120924,-128.71835324616,0,  !- X,Y,Z ==> Vertex 5 {m}
    50.0734666930437,-142.156615390382,0,  !- X,Y,Z ==> Vertex 6 {m}
    38.1831088085617,-141.601387702308,0,  !- X,Y,Z ==> Vertex 7 {m}
    39.1878154690575,-120.833166084413,0,  !- X,Y,Z ==> Vertex 8 {m}
    35.5872250419978,-120.722124626557,0,  !- X,Y,Z ==> Vertex 9 {m}
    36.4244774381918,-101.952983261136,0,  !- X,Y,Z ==> Vertex 10 {m}
    41.7834822921289,-102.175074395697,0,  !- X,Y,Z ==> Vertex 11 {m}
    42.2020996379608,-92.73497317062,0;  !- X,Y,Z ==> Vertex 12 {m}

  Shading:Building:Detailed,
    Shading Surface 52,      !- Name
    ,                        !- Transmittance Schedule Name
    ,                        !- Number of Vertices
    35.5872250419978,-120.722124626557,12,  !- X,Y,Z ==> Vertex 1 {m}
    35.5872250419978,-120.722124626557,0,  !- X,Y,Z ==> Vertex 2 {m}
    39.1878154690575,-120.833166084413,0,  !- X,Y,Z ==> Vertex 3 {m}
    39.1878154690575,-120.833166084413,12;  !- X,Y,Z ==> Vertex 4 {m}

  Shading:Building:Detailed,
    Shading Surface 53,      !- Name
    ,                        !- Transmittance Schedule Name
    ,                        !- Number of Vertices
    70.4209243554812,-129.60666904344,12,  !- X,Y,Z ==> Vertex 1 {m}
    70.4209243554812,-129.60666904344,0,  !- X,Y,Z ==> Vertex 2 {m}
    71.0069428077853,-116.83476547419,0,  !- X,Y,Z ==> Vertex 3 {m}
    71.0069428077853,-116.83476547419,12;  !- X,Y,Z ==> Vertex 4 {m}

  Shading:Building:Detailed,
    Shading Surface 54,      !- Name
    ,                        !- Transmittance Schedule Name
    ,                        !- Number of Vertices
    42.2020996379608,-92.73497317062,12,  !- X,Y,Z ==> Vertex 1 {m}
    42.2020996379608,-92.73497317062,0,  !- X,Y,Z ==> Vertex 2 {m}
    41.7834822921289,-102.175074395697,0,  !- X,Y,Z ==> Vertex 3 {m}
    41.7834822921289,-102.175074395697,12;  !- X,Y,Z ==> Vertex 4 {m}

  Shading:Building:Detailed,
    Shading Surface 55,      !- Name
    ,                        !- Transmittance Schedule Name
    ,                        !- Number of Vertices
    42.2020996379608,-92.73497317062,12,  !- X,Y,Z ==> Vertex 1 {m}
    41.7834822921289,-102.175074395697,12,  !- X,Y,Z ==> Vertex 2 {m}
    36.4244774381918,-101.952983261136,12,  !- X,Y,Z ==> Vertex 3 {m}
    35.5872250419978,-120.722124626557,12,  !- X,Y,Z ==> Vertex 4 {m}
    39.1878154690575,-120.833166084413,12,  !- X,Y,Z ==> Vertex 5 {m}
    38.1831088085617,-141.601387702308,12,  !- X,Y,Z ==> Vertex 6 {m}
    50.0734666930437,-142.156615390382,12,  !- X,Y,Z ==> Vertex 7 {m}
    50.7432520120924,-128.71835324616,12,  !- X,Y,Z ==> Vertex 8 {m}
    70.4209243554812,-129.60666904344,12,  !- X,Y,Z ==> Vertex 9 {m}
    71.0069428077853,-116.83476547419,12,  !- X,Y,Z ==> Vertex 10 {m}
    48.8172672126147,-115.946468555342,12,  !- X,Y,Z ==> Vertex 11 {m}
    49.8219254674877,-93.0681048841168,12;  !- X,Y,Z ==> Vertex 12 {m}

  Shading:Building:Detailed,
    Shading Surface 56,      !- Name
    ,                        !- Transmittance Schedule Name
    ,                        !- Number of Vertices
    36.4244774381918,-101.952983261136,12,  !- X,Y,Z ==> Vertex 1 {m}
    36.4244774381918,-101.952983261136,0,  !- X,Y,Z ==> Vertex 2 {m}
    35.5872250419978,-120.722124626557,0,  !- X,Y,Z ==> Vertex 3 {m}
    35.5872250419978,-120.722124626557,12;  !- X,Y,Z ==> Vertex 4 {m}

  Shading:Building:Detailed,
    Shading Surface 57,      !- Name
    ,                        !- Transmittance Schedule Name
    ,                        !- Number of Vertices
    -229.008271434158,69.3050541447169,0,  !- X,Y,Z ==> Vertex 1 {m}
    -229.008687938294,56.0889124992609,0,  !- X,Y,Z ==> Vertex 2 {m}
    -237.130751087521,56.0891730003497,0,  !- X,Y,Z ==> Vertex 3 {m}
    -237.130319811616,69.3053146450419,0;  !- X,Y,Z ==> Vertex 4 {m}

  Shading:Building:Detailed,
    Shading Surface 58,      !- Name
    ,                        !- Transmittance Schedule Name
    ,                        !- Number of Vertices
    -237.130751087521,56.0891730003497,12,  !- X,Y,Z ==> Vertex 1 {m}
    -237.130751087521,56.0891730003497,0,  !- X,Y,Z ==> Vertex 2 {m}
    -229.008687938294,56.0889124992609,0,  !- X,Y,Z ==> Vertex 3 {m}
    -229.008687938294,56.0889124992609,12;  !- X,Y,Z ==> Vertex 4 {m}

  Shading:Building:Detailed,
    Shading Surface 59,      !- Name
    ,                        !- Transmittance Schedule Name
    ,                        !- Number of Vertices
    -237.130319811616,69.3053146450419,12,  !- X,Y,Z ==> Vertex 1 {m}
    -237.130751087521,56.0891730003497,12,  !- X,Y,Z ==> Vertex 2 {m}
    -229.008687938294,56.0889124992609,12,  !- X,Y,Z ==> Vertex 3 {m}
    -229.008271434158,69.3050541447169,12;  !- X,Y,Z ==> Vertex 4 {m}

  Shading:Building:Detailed,
    Shading Surface 60,      !- Name
    ,                        !- Transmittance Schedule Name
    ,                        !- Number of Vertices
    -237.130319811616,69.3053146450419,12,  !- X,Y,Z ==> Vertex 1 {m}
    -237.130319811616,69.3053146450419,0,  !- X,Y,Z ==> Vertex 2 {m}
    -237.130751087521,56.0891730003497,0,  !- X,Y,Z ==> Vertex 3 {m}
    -237.130751087521,56.0891730003497,12;  !- X,Y,Z ==> Vertex 4 {m}

  Shading:Building:Detailed,
    Shading Surface 61,      !- Name
    ,                        !- Transmittance Schedule Name
    ,                        !- Number of Vertices
    -229.008271434158,69.3050541447169,12,  !- X,Y,Z ==> Vertex 1 {m}
    -229.008271434158,69.3050541447169,0,  !- X,Y,Z ==> Vertex 2 {m}
    -237.130319811616,69.3053146450419,0,  !- X,Y,Z ==> Vertex 3 {m}
    -237.130319811616,69.3053146450419,12;  !- X,Y,Z ==> Vertex 4 {m}

  Shading:Building:Detailed,
    Shading Surface 62,      !- Name
    ,                        !- Transmittance Schedule Name
    ,                        !- Number of Vertices
    -229.008687938294,56.0889124992609,12,  !- X,Y,Z ==> Vertex 1 {m}
    -229.008687938294,56.0889124992609,0,  !- X,Y,Z ==> Vertex 2 {m}
    -229.008271434158,69.3050541447169,0,  !- X,Y,Z ==> Vertex 3 {m}
    -229.008271434158,69.3050541447169,12;  !- X,Y,Z ==> Vertex 4 {m}

  Shading:Building:Detailed,
    Shading Surface 63,      !- Name
    ,                        !- Transmittance Schedule Name
    ,                        !- Number of Vertices
    137.994704827049,-121.05408149566,12,  !- X,Y,Z ==> Vertex 1 {m}
    137.994704827049,-121.05408149566,0,  !- X,Y,Z ==> Vertex 2 {m}
    79.6316202386151,-118.056335890141,0,  !- X,Y,Z ==> Vertex 3 {m}
    79.6316202386151,-118.056335890141,12;  !- X,Y,Z ==> Vertex 4 {m}

  Shading:Building:Detailed,
    Shading Surface 64,      !- Name
    ,                        !- Transmittance Schedule Name
    ,                        !- Number of Vertices
    152.982435816427,-84.4039863651476,12,  !- X,Y,Z ==> Vertex 1 {m}
    152.982435816427,-84.4039863651476,0,  !- X,Y,Z ==> Vertex 2 {m}
    140.003617536296,-83.7378880745482,0,  !- X,Y,Z ==> Vertex 3 {m}
    140.003617536296,-83.7378880745482,12;  !- X,Y,Z ==> Vertex 4 {m}

  Shading:Building:Detailed,
    Shading Surface 65,      !- Name
    ,                        !- Transmittance Schedule Name
    ,                        !- Number of Vertices
    140.003617536296,-83.7378880745482,12,  !- X,Y,Z ==> Vertex 1 {m}
    140.003617536296,-83.7378880745482,0,  !- X,Y,Z ==> Vertex 2 {m}
    137.994704827049,-121.05408149566,0,  !- X,Y,Z ==> Vertex 3 {m}
    137.994704827049,-121.05408149566,12;  !- X,Y,Z ==> Vertex 4 {m}

  Shading:Building:Detailed,
    Shading Surface 66,      !- Name
    ,                        !- Transmittance Schedule Name
    ,                        !- Number of Vertices
    136.822676906287,-134.714481277753,12,  !- X,Y,Z ==> Vertex 1 {m}
    136.822676906287,-134.714481277753,0,  !- X,Y,Z ==> Vertex 2 {m}
    135.901922165891,-152.261975068752,0,  !- X,Y,Z ==> Vertex 3 {m}
    135.901922165891,-152.261975068752,12;  !- X,Y,Z ==> Vertex 4 {m}

  Shading:Building:Detailed,
    Shading Surface 67,      !- Name
    ,                        !- Transmittance Schedule Name
    ,                        !- Number of Vertices
    152.982435816427,-84.4039863651476,0,  !- X,Y,Z ==> Vertex 1 {m}
    149.299537543278,-152.928072024283,0,  !- X,Y,Z ==> Vertex 2 {m}
    135.901922165891,-152.261975068752,0,  !- X,Y,Z ==> Vertex 3 {m}
    136.822676906287,-134.714481277753,0,  !- X,Y,Z ==> Vertex 4 {m}
    78.8781557556463,-131.60566181124,0,  !- X,Y,Z ==> Vertex 5 {m}
    79.6316202386151,-118.056335890141,0,  !- X,Y,Z ==> Vertex 6 {m}
    137.994704827049,-121.05408149566,0,  !- X,Y,Z ==> Vertex 7 {m}
    140.003617536296,-83.7378880745482,0;  !- X,Y,Z ==> Vertex 8 {m}

  Shading:Building:Detailed,
    Shading Surface 68,      !- Name
    ,                        !- Transmittance Schedule Name
    ,                        !- Number of Vertices
    149.299537543278,-152.928072024283,12,  !- X,Y,Z ==> Vertex 1 {m}
    149.299537543278,-152.928072024283,0,  !- X,Y,Z ==> Vertex 2 {m}
    152.982435816427,-84.4039863651476,0,  !- X,Y,Z ==> Vertex 3 {m}
    152.982435816427,-84.4039863651476,12;  !- X,Y,Z ==> Vertex 4 {m}
