  ConvergenceLimits,
    0,                       !- Minimum System Timestep {minutes}
    25;                      !- Maximum HVAC Iterations

  Version,23.1;

  Timestep,1;

  LifeCycleCost:Parameters,
    Life Cycle Cost Parameters,  !- Name
    EndOfYear,               !- Discounting Convention
    ConstantDollar,          !- Inflation Approach
    0.03,                    !- Real Discount Rate
    ,                        !- Nominal Discount Rate
    ,                        !- Inflation
    ,                        !- Base Date Month
    2011,                    !- Base Date Year
    ,                        !- Service Date Month
    2011,                    !- Service Date Year
    25,                      !- Length of Study Period in Years
    ,                        !- Tax rate
    None;                    !- Depreciation Method

  LifeCycleCost:UsePriceEscalation,
    U.S. Avg  Commercial-Electricity,  !- LCC Price Escalation Name
    Electricity,             !- Resource
    2011,                    !- Escalation Start Year
    January,                 !- Escalation Start Month
    0.9838,                  !- Year 1 Escalation
    0.9730,                  !- Year 2 Escalation
    0.9632,                  !- Year 3 Escalation
    0.9611,                  !- Year 4 Escalation
    0.9571,                  !- Year 5 Escalation
    0.9553,                  !- Year 6 Escalation
    0.9539,                  !- Year 7 Escalation
    0.9521,                  !- Year 8 Escalation
    0.9546,                  !- Year 9 Escalation
    0.9550,                  !- <none>
    0.9553,                  !- <none>
    0.9564,                  !- <none>
    0.9575,                  !- <none>
    0.9596,                  !- <none>
    0.9618,                  !- <none>
    0.9614,                  !- <none>
    0.9618,                  !- <none>
    0.9618,                  !- <none>
    0.9593,                  !- <none>
    0.9589,                  !- <none>
    0.9607,                  !- <none>
    0.9625,                  !- <none>
    0.9650,                  !- <none>
    0.9708,                  !- <none>
    0.9751,                  !- <none>
    0.9762,                  !- <none>
    0.9766,                  !- <none>
    0.9766,                  !- <none>
    0.9769,                  !- <none>
    0.9773;                  !- <none>

  LifeCycleCost:UsePriceEscalation,
    U.S. Avg  Commercial-Distillate Oil,  !- LCC Price Escalation Name
    FuelOilNo1,              !- Resource
    2011,                    !- Escalation Start Year
    January,                 !- Escalation Start Month
    0.9714,                  !- Year 1 Escalation
    0.9730,                  !- Year 2 Escalation
    0.9942,                  !- Year 3 Escalation
    1.0164,                  !- Year 4 Escalation
    1.0541,                  !- Year 5 Escalation
    1.0928,                  !- Year 6 Escalation
    1.1267,                  !- Year 7 Escalation
    1.1580,                  !- Year 8 Escalation
    1.1792,                  !- Year 9 Escalation
    1.1967,                  !- <none>
    1.2200,                  !- <none>
    1.2333,                  !- <none>
    1.2566,                  !- <none>
    1.2709,                  !- <none>
    1.2826,                  !- <none>
    1.2985,                  !- <none>
    1.3102,                  !- <none>
    1.3250,                  !- <none>
    1.3261,                  !- <none>
    1.3282,                  !- <none>
    1.3324,                  !- <none>
    1.3356,                  !- <none>
    1.3431,                  !- <none>
    1.3510,                  !- <none>
    1.3568,                  !- <none>
    1.3606,                  !- <none>
    1.3637,                  !- <none>
    1.3674,                  !- <none>
    1.3706,                  !- <none>
    1.3743;                  !- <none>

  LifeCycleCost:UsePriceEscalation,
    U.S. Avg  Commercial-Residual Oil,  !- LCC Price Escalation Name
    FuelOilNo2,              !- Resource
    2011,                    !- Escalation Start Year
    January,                 !- Escalation Start Month
    0.8469,                  !- Year 1 Escalation
    0.8257,                  !- Year 2 Escalation
    0.8681,                  !- Year 3 Escalation
    0.8988,                  !- Year 4 Escalation
    0.9289,                  !- Year 5 Escalation
    0.9604,                  !- Year 6 Escalation
    0.9897,                  !- Year 7 Escalation
    1.0075,                  !- Year 8 Escalation
    1.0314,                  !- Year 9 Escalation
    1.0554,                  !- <none>
    1.0861,                  !- <none>
    1.1278,                  !- <none>
    1.1497,                  !- <none>
    1.1620,                  !- <none>
    1.1743,                  !- <none>
    1.1852,                  !- <none>
    1.1948,                  !- <none>
    1.2037,                  !- <none>
    1.2071,                  !- <none>
    1.2119,                  !- <none>
    1.2139,                  !- <none>
    1.2194,                  !- <none>
    1.2276,                  !- <none>
    1.2365,                  !- <none>
    1.2420,                  !- <none>
    1.2461,                  !- <none>
    1.2509,                  !- <none>
    1.2550,                  !- <none>
    1.2591,                  !- <none>
    1.2638;                  !- <none>

  LifeCycleCost:UsePriceEscalation,
    U.S. Avg  Commercial-Natural gas,  !- LCC Price Escalation Name
    NaturalGas,              !- Resource
    2011,                    !- Escalation Start Year
    January,                 !- Escalation Start Month
    0.9823,                  !- Year 1 Escalation
    0.9557,                  !- Year 2 Escalation
    0.9279,                  !- Year 3 Escalation
    0.9257,                  !- Year 4 Escalation
    0.9346,                  !- Year 5 Escalation
    0.9412,                  !- Year 6 Escalation
    0.9512,                  !- Year 7 Escalation
    0.9645,                  !- Year 8 Escalation
    0.9856,                  !- Year 9 Escalation
    1.0067,                  !- <none>
    1.0222,                  !- <none>
    1.0410,                  !- <none>
    1.0610,                  !- <none>
    1.0787,                  !- <none>
    1.0942,                  !- <none>
    1.1098,                  !- <none>
    1.1220,                  !- <none>
    1.1308,                  !- <none>
    1.1386,                  !- <none>
    1.1486,                  !- <none>
    1.1619,                  !- <none>
    1.1763,                  !- <none>
    1.1918,                  !- <none>
    1.2118,                  !- <none>
    1.2284,                  !- <none>
    1.2439,                  !- <none>
    1.2605,                  !- <none>
    1.2772,                  !- <none>
    1.2938,                  !- <none>
    1.3115;                  !- <none>

  LifeCycleCost:UsePriceEscalation,
    U.S. Avg  Commercial-Coal,  !- LCC Price Escalation Name
    Coal,                    !- Resource
    2011,                    !- Escalation Start Year
    January,                 !- Escalation Start Month
    0.9970,                  !- Year 1 Escalation
    1.0089,                  !- Year 2 Escalation
    1.0089,                  !- Year 3 Escalation
    0.9941,                  !- Year 4 Escalation
    0.9941,                  !- Year 5 Escalation
    1.0000,                  !- Year 6 Escalation
    1.0030,                  !- Year 7 Escalation
    1.0059,                  !- Year 8 Escalation
    1.0089,                  !- Year 9 Escalation
    1.0119,                  !- <none>
    1.0148,                  !- <none>
    1.0178,                  !- <none>
    1.0208,                  !- <none>
    1.0267,                  !- <none>
    1.0297,                  !- <none>
    1.0356,                  !- <none>
    1.0415,                  !- <none>
    1.0534,                  !- <none>
    1.0564,                  !- <none>
    1.0593,                  !- <none>
    1.0653,                  !- <none>
    1.0712,                  !- <none>
    1.0742,                  !- <none>
    1.0801,                  !- <none>
    1.0831,                  !- <none>
    1.0831,                  !- <none>
    1.0861,                  !- <none>
    1.0890,                  !- <none>
    1.0920,                  !- <none>
    1.0950;                  !- <none>

  Building,
    bld_12,                  !- Name
    ,                        !- North Axis {deg}
    City,                    !- Terrain
    ,                        !- Loads Convergence Tolerance Value {W}
    ,                        !- Temperature Convergence Tolerance Value {deltaC}
    ,                        !- Solar Distribution
    ,                        !- Maximum Number of Warmup Days
    ;                        !- Minimum Number of Warmup Days

  Shading:Building:Detailed,
    Shading Surface 1,       !- Name
    ,                        !- Transmittance Schedule Name
    ,                        !- Number of Vertices
    272.96913826798,202.245370759694,0,  !- X,Y,Z ==> Vertex 1 {m}
    272.383711746453,183.476207565149,0,  !- X,Y,Z ==> Vertex 2 {m}
    263.759196373938,183.698009429217,0,  !- X,Y,Z ==> Vertex 3 {m}
    264.344645152314,202.467171935299,0;  !- X,Y,Z ==> Vertex 4 {m}

  Shading:Building:Detailed,
    Shading Surface 2,       !- Name
    ,                        !- Transmittance Schedule Name
    ,                        !- Number of Vertices
    263.759196373938,183.698009429217,12,  !- X,Y,Z ==> Vertex 1 {m}
    263.759196373938,183.698009429217,0,  !- X,Y,Z ==> Vertex 2 {m}
    272.383711746453,183.476207565149,0,  !- X,Y,Z ==> Vertex 3 {m}
    272.383711746453,183.476207565149,12;  !- X,Y,Z ==> Vertex 4 {m}

  Shading:Building:Detailed,
    Shading Surface 3,       !- Name
    ,                        !- Transmittance Schedule Name
    ,                        !- Number of Vertices
    272.383711746453,183.476207565149,12,  !- X,Y,Z ==> Vertex 1 {m}
    272.383711746453,183.476207565149,0,  !- X,Y,Z ==> Vertex 2 {m}
    272.96913826798,202.245370759694,0,  !- X,Y,Z ==> Vertex 3 {m}
    272.96913826798,202.245370759694,12;  !- X,Y,Z ==> Vertex 4 {m}

  Shading:Building:Detailed,
    Shading Surface 4,       !- Name
    ,                        !- Transmittance Schedule Name
    ,                        !- Number of Vertices
    272.96913826798,202.245370759694,12,  !- X,Y,Z ==> Vertex 1 {m}
    272.96913826798,202.245370759694,0,  !- X,Y,Z ==> Vertex 2 {m}
    264.344645152314,202.467171935299,0,  !- X,Y,Z ==> Vertex 3 {m}
    264.344645152314,202.467171935299,12;  !- X,Y,Z ==> Vertex 4 {m}

  Shading:Building:Detailed,
    Shading Surface 5,       !- Name
    ,                        !- Transmittance Schedule Name
    ,                        !- Number of Vertices
    264.344645152314,202.467171935299,12,  !- X,Y,Z ==> Vertex 1 {m}
    264.344645152314,202.467171935299,0,  !- X,Y,Z ==> Vertex 2 {m}
    263.759196373938,183.698009429217,0,  !- X,Y,Z ==> Vertex 3 {m}
    263.759196373938,183.698009429217,12;  !- X,Y,Z ==> Vertex 4 {m}

  Shading:Building:Detailed,
    Shading Surface 6,       !- Name
    ,                        !- Transmittance Schedule Name
    ,                        !- Number of Vertices
    264.344645152314,202.467171935299,12,  !- X,Y,Z ==> Vertex 1 {m}
    263.759196373938,183.698009429217,12,  !- X,Y,Z ==> Vertex 2 {m}
    272.383711746453,183.476207565149,12,  !- X,Y,Z ==> Vertex 3 {m}
    272.96913826798,202.245370759694,12;  !- X,Y,Z ==> Vertex 4 {m}

  Shading:Building:Detailed,
    Shading Surface 60,      !- Name
    ,                        !- Transmittance Schedule Name
    ,                        !- Number of Vertices
    66.6536551459241,-47.9776011322237,12,  !- X,Y,Z ==> Vertex 1 {m}
    66.318760802772,-53.3084825072049,12,  !- X,Y,Z ==> Vertex 2 {m}
    58.4475911759311,-52.864310216072,12,  !- X,Y,Z ==> Vertex 3 {m}
    56.3544776900741,-89.1809340746597,12,  !- X,Y,Z ==> Vertex 4 {m}
    125.52066645503,-93.1782270600865,12,  !- X,Y,Z ==> Vertex 5 {m}
    127.529738583879,-59.0827842516326,12,  !- X,Y,Z ==> Vertex 6 {m}
    118.569990833352,-58.527636141132,12,  !- X,Y,Z ==> Vertex 7 {m}
    118.988546528948,-50.9755517419538,12;  !- X,Y,Z ==> Vertex 8 {m}

  Shading:Building:Detailed,
    Shading Surface 61,      !- Name
    ,                        !- Transmittance Schedule Name
    ,                        !- Number of Vertices
    118.988546528948,-50.9755517419538,12,  !- X,Y,Z ==> Vertex 1 {m}
    118.988546528948,-50.9755517419538,0,  !- X,Y,Z ==> Vertex 2 {m}
    66.6536551459241,-47.9776011322237,0,  !- X,Y,Z ==> Vertex 3 {m}
    66.6536551459241,-47.9776011322237,12;  !- X,Y,Z ==> Vertex 4 {m}

  Shading:Building:Detailed,
    Shading Surface 62,      !- Name
    ,                        !- Transmittance Schedule Name
    ,                        !- Number of Vertices
    66.318760802772,-53.3084825072049,12,  !- X,Y,Z ==> Vertex 1 {m}
    66.318760802772,-53.3084825072049,0,  !- X,Y,Z ==> Vertex 2 {m}
    58.4475911759311,-52.864310216072,0,  !- X,Y,Z ==> Vertex 3 {m}
    58.4475911759311,-52.864310216072,12;  !- X,Y,Z ==> Vertex 4 {m}

  Shading:Building:Detailed,
    Shading Surface 63,      !- Name
    ,                        !- Transmittance Schedule Name
    ,                        !- Number of Vertices
    118.988546528948,-50.9755517419538,0,  !- X,Y,Z ==> Vertex 1 {m}
    118.569990833352,-58.527636141132,0,  !- X,Y,Z ==> Vertex 2 {m}
    127.529738583879,-59.0827842516326,0,  !- X,Y,Z ==> Vertex 3 {m}
    125.52066645503,-93.1782270600865,0,  !- X,Y,Z ==> Vertex 4 {m}
    56.3544776900741,-89.1809340746597,0,  !- X,Y,Z ==> Vertex 5 {m}
    58.4475911759311,-52.864310216072,0,  !- X,Y,Z ==> Vertex 6 {m}
    66.318760802772,-53.3084825072049,0,  !- X,Y,Z ==> Vertex 7 {m}
    66.6536551459241,-47.9776011322237,0;  !- X,Y,Z ==> Vertex 8 {m}

  Shading:Building:Detailed,
    Shading Surface 64,      !- Name
    ,                        !- Transmittance Schedule Name
    ,                        !- Number of Vertices
    118.569990833352,-58.527636141132,12,  !- X,Y,Z ==> Vertex 1 {m}
    118.569990833352,-58.527636141132,0,  !- X,Y,Z ==> Vertex 2 {m}
    118.988546528948,-50.9755517419538,0,  !- X,Y,Z ==> Vertex 3 {m}
    118.988546528948,-50.9755517419538,12;  !- X,Y,Z ==> Vertex 4 {m}

  Shading:Building:Detailed,
    Shading Surface 65,      !- Name
    ,                        !- Transmittance Schedule Name
    ,                        !- Number of Vertices
    56.3544776900741,-89.1809340746597,12,  !- X,Y,Z ==> Vertex 1 {m}
    56.3544776900741,-89.1809340746597,0,  !- X,Y,Z ==> Vertex 2 {m}
    125.52066645503,-93.1782270600865,0,  !- X,Y,Z ==> Vertex 3 {m}
    125.52066645503,-93.1782270600865,12;  !- X,Y,Z ==> Vertex 4 {m}

  Shading:Building:Detailed,
    Shading Surface 66,      !- Name
    ,                        !- Transmittance Schedule Name
    ,                        !- Number of Vertices
    66.6536551459241,-47.9776011322237,12,  !- X,Y,Z ==> Vertex 1 {m}
    66.6536551459241,-47.9776011322237,0,  !- X,Y,Z ==> Vertex 2 {m}
    66.318760802772,-53.3084825072049,0,  !- X,Y,Z ==> Vertex 3 {m}
    66.318760802772,-53.3084825072049,12;  !- X,Y,Z ==> Vertex 4 {m}

  Shading:Building:Detailed,
    Shading Surface 67,      !- Name
    ,                        !- Transmittance Schedule Name
    ,                        !- Number of Vertices
    58.4475911759311,-52.864310216072,12,  !- X,Y,Z ==> Vertex 1 {m}
    58.4475911759311,-52.864310216072,0,  !- X,Y,Z ==> Vertex 2 {m}
    56.3544776900741,-89.1809340746597,0,  !- X,Y,Z ==> Vertex 3 {m}
    56.3544776900741,-89.1809340746597,12;  !- X,Y,Z ==> Vertex 4 {m}

  Shading:Building:Detailed,
    Shading Surface 68,      !- Name
    ,                        !- Transmittance Schedule Name
    ,                        !- Number of Vertices
    127.529738583879,-59.0827842516326,12,  !- X,Y,Z ==> Vertex 1 {m}
    127.529738583879,-59.0827842516326,0,  !- X,Y,Z ==> Vertex 2 {m}
    118.569990833352,-58.527636141132,0,  !- X,Y,Z ==> Vertex 3 {m}
    118.569990833352,-58.527636141132,12;  !- X,Y,Z ==> Vertex 4 {m}

  Shading:Building:Detailed,
    Shading Surface 69,      !- Name
    ,                        !- Transmittance Schedule Name
    ,                        !- Number of Vertices
    125.52066645503,-93.1782270600865,12,  !- X,Y,Z ==> Vertex 1 {m}
    125.52066645503,-93.1782270600865,0,  !- X,Y,Z ==> Vertex 2 {m}
    127.529738583879,-59.0827842516326,0,  !- X,Y,Z ==> Vertex 3 {m}
    127.529738583879,-59.0827842516326,12;  !- X,Y,Z ==> Vertex 4 {m}

  Shading:Building:Detailed,
    Shading Surface 70,      !- Name
    ,                        !- Transmittance Schedule Name
    ,                        !- Number of Vertices
    222.404477279534,-124.161635254633,0,  !- X,Y,Z ==> Vertex 1 {m}
    221.986028223327,-131.824784690314,0,  !- X,Y,Z ==> Vertex 2 {m}
    240.994302745499,-133.045838668011,0,  !- X,Y,Z ==> Vertex 3 {m}
    240.073683009998,-147.705782430203,0,  !- X,Y,Z ==> Vertex 4 {m}
    185.895825614025,-144.375571774066,0,  !- X,Y,Z ==> Vertex 5 {m}
    186.900273765665,-129.049272940111,0,  !- X,Y,Z ==> Vertex 6 {m}
    202.726534498367,-130.048388249606,0,  !- X,Y,Z ==> Vertex 7 {m}
    203.14501928346,-122.940539663297,0;  !- X,Y,Z ==> Vertex 8 {m}

  Shading:Building:Detailed,
    Shading Surface 71,      !- Name
    ,                        !- Transmittance Schedule Name
    ,                        !- Number of Vertices
    240.994302745499,-133.045838668011,12,  !- X,Y,Z ==> Vertex 1 {m}
    240.994302745499,-133.045838668011,0,  !- X,Y,Z ==> Vertex 2 {m}
    221.986028223327,-131.824784690314,0,  !- X,Y,Z ==> Vertex 3 {m}
    221.986028223327,-131.824784690314,12;  !- X,Y,Z ==> Vertex 4 {m}

  Shading:Building:Detailed,
    Shading Surface 72,      !- Name
    ,                        !- Transmittance Schedule Name
    ,                        !- Number of Vertices
    202.726534498367,-130.048388249606,12,  !- X,Y,Z ==> Vertex 1 {m}
    202.726534498367,-130.048388249606,0,  !- X,Y,Z ==> Vertex 2 {m}
    186.900273765665,-129.049272940111,0,  !- X,Y,Z ==> Vertex 3 {m}
    186.900273765665,-129.049272940111,12;  !- X,Y,Z ==> Vertex 4 {m}

  Shading:Building:Detailed,
    Shading Surface 73,      !- Name
    ,                        !- Transmittance Schedule Name
    ,                        !- Number of Vertices
    222.404477279534,-124.161635254633,12,  !- X,Y,Z ==> Vertex 1 {m}
    222.404477279534,-124.161635254633,0,  !- X,Y,Z ==> Vertex 2 {m}
    203.14501928346,-122.940539663297,0,  !- X,Y,Z ==> Vertex 3 {m}
    203.14501928346,-122.940539663297,12;  !- X,Y,Z ==> Vertex 4 {m}

  Shading:Building:Detailed,
    Shading Surface 74,      !- Name
    ,                        !- Transmittance Schedule Name
    ,                        !- Number of Vertices
    221.986028223327,-131.824784690314,12,  !- X,Y,Z ==> Vertex 1 {m}
    221.986028223327,-131.824784690314,0,  !- X,Y,Z ==> Vertex 2 {m}
    222.404477279534,-124.161635254633,0,  !- X,Y,Z ==> Vertex 3 {m}
    222.404477279534,-124.161635254633,12;  !- X,Y,Z ==> Vertex 4 {m}

  Shading:Building:Detailed,
    Shading Surface 75,      !- Name
    ,                        !- Transmittance Schedule Name
    ,                        !- Number of Vertices
    186.900273765665,-129.049272940111,12,  !- X,Y,Z ==> Vertex 1 {m}
    186.900273765665,-129.049272940111,0,  !- X,Y,Z ==> Vertex 2 {m}
    185.895825614025,-144.375571774066,0,  !- X,Y,Z ==> Vertex 3 {m}
    185.895825614025,-144.375571774066,12;  !- X,Y,Z ==> Vertex 4 {m}

  Shading:Building:Detailed,
    Shading Surface 76,      !- Name
    ,                        !- Transmittance Schedule Name
    ,                        !- Number of Vertices
    203.14501928346,-122.940539663297,12,  !- X,Y,Z ==> Vertex 1 {m}
    203.14501928346,-122.940539663297,0,  !- X,Y,Z ==> Vertex 2 {m}
    202.726534498367,-130.048388249606,0,  !- X,Y,Z ==> Vertex 3 {m}
    202.726534498367,-130.048388249606,12;  !- X,Y,Z ==> Vertex 4 {m}

  Shading:Building:Detailed,
    Shading Surface 77,      !- Name
    ,                        !- Transmittance Schedule Name
    ,                        !- Number of Vertices
    185.895825614025,-144.375571774066,12,  !- X,Y,Z ==> Vertex 1 {m}
    185.895825614025,-144.375571774066,0,  !- X,Y,Z ==> Vertex 2 {m}
    240.073683009998,-147.705782430203,0,  !- X,Y,Z ==> Vertex 3 {m}
    240.073683009998,-147.705782430203,12;  !- X,Y,Z ==> Vertex 4 {m}

  Shading:Building:Detailed,
    Shading Surface 78,      !- Name
    ,                        !- Transmittance Schedule Name
    ,                        !- Number of Vertices
    240.073683009998,-147.705782430203,12,  !- X,Y,Z ==> Vertex 1 {m}
    240.073683009998,-147.705782430203,0,  !- X,Y,Z ==> Vertex 2 {m}
    240.994302745499,-133.045838668011,0,  !- X,Y,Z ==> Vertex 3 {m}
    240.994302745499,-133.045838668011,12;  !- X,Y,Z ==> Vertex 4 {m}

  Shading:Building:Detailed,
    Shading Surface 79,      !- Name
    ,                        !- Transmittance Schedule Name
    ,                        !- Number of Vertices
    203.14501928346,-122.940539663297,12,  !- X,Y,Z ==> Vertex 1 {m}
    202.726534498367,-130.048388249606,12,  !- X,Y,Z ==> Vertex 2 {m}
    186.900273765665,-129.049272940111,12,  !- X,Y,Z ==> Vertex 3 {m}
    185.895825614025,-144.375571774066,12,  !- X,Y,Z ==> Vertex 4 {m}
    240.073683009998,-147.705782430203,12,  !- X,Y,Z ==> Vertex 5 {m}
    240.994302745499,-133.045838668011,12,  !- X,Y,Z ==> Vertex 6 {m}
    221.986028223327,-131.824784690314,12,  !- X,Y,Z ==> Vertex 7 {m}
    222.404477279534,-124.161635254633,12;  !- X,Y,Z ==> Vertex 8 {m}

  Shading:Building:Detailed,
    Shading Surface 80,      !- Name
    ,                        !- Transmittance Schedule Name
    ,                        !- Number of Vertices
    15.2394628644123,163.369258102004,0,  !- X,Y,Z ==> Vertex 1 {m}
    13.3973656174665,144.044814407424,0,  !- X,Y,Z ==> Vertex 2 {m}
    1.50720340146482,145.155402201004,0,  !- X,Y,Z ==> Vertex 3 {m}
    -1.17227388121907,116.835103048727,0,  !- X,Y,Z ==> Vertex 4 {m}
    13.9835554999769,115.391336488604,0,  !- X,Y,Z ==> Vertex 5 {m}
    12.6438387758102,100.953535014442,0,  !- X,Y,Z ==> Vertex 6 {m}
    -16.7467999283673,103.730043096797,0,  !- X,Y,Z ==> Vertex 7 {m}
    -11.3039995983392,161.814410888375,0,  !- X,Y,Z ==> Vertex 8 {m}
    2.00960026648837,160.592742355564,0,  !- X,Y,Z ==> Vertex 9 {m}
    2.42826565257998,164.590902553483,0;  !- X,Y,Z ==> Vertex 10 {m}

  Shading:Building:Detailed,
    Shading Surface 81,      !- Name
    ,                        !- Transmittance Schedule Name
    ,                        !- Number of Vertices
    13.3973656174665,144.044814407424,12,  !- X,Y,Z ==> Vertex 1 {m}
    13.3973656174665,144.044814407424,0,  !- X,Y,Z ==> Vertex 2 {m}
    15.2394628644123,163.369258102004,0,  !- X,Y,Z ==> Vertex 3 {m}
    15.2394628644123,163.369258102004,12;  !- X,Y,Z ==> Vertex 4 {m}

  Shading:Building:Detailed,
    Shading Surface 82,      !- Name
    ,                        !- Transmittance Schedule Name
    ,                        !- Number of Vertices
    1.50720340146482,145.155402201004,12,  !- X,Y,Z ==> Vertex 1 {m}
    1.50720340146482,145.155402201004,0,  !- X,Y,Z ==> Vertex 2 {m}
    13.3973656174665,144.044814407424,0,  !- X,Y,Z ==> Vertex 3 {m}
    13.3973656174665,144.044814407424,12;  !- X,Y,Z ==> Vertex 4 {m}

  Shading:Building:Detailed,
    Shading Surface 83,      !- Name
    ,                        !- Transmittance Schedule Name
    ,                        !- Number of Vertices
    2.42826565257998,164.590902553483,12,  !- X,Y,Z ==> Vertex 1 {m}
    2.00960026648837,160.592742355564,12,  !- X,Y,Z ==> Vertex 2 {m}
    -11.3039995983392,161.814410888375,12,  !- X,Y,Z ==> Vertex 3 {m}
    -16.7467999283673,103.730043096797,12,  !- X,Y,Z ==> Vertex 4 {m}
    12.6438387758102,100.953535014442,12,  !- X,Y,Z ==> Vertex 5 {m}
    13.9835554999769,115.391336488604,12,  !- X,Y,Z ==> Vertex 6 {m}
    -1.17227388121907,116.835103048727,12,  !- X,Y,Z ==> Vertex 7 {m}
    1.50720340146482,145.155402201004,12,  !- X,Y,Z ==> Vertex 8 {m}
    13.3973656174665,144.044814407424,12,  !- X,Y,Z ==> Vertex 9 {m}
    15.2394628644123,163.369258102004,12;  !- X,Y,Z ==> Vertex 10 {m}

  Shading:Building:Detailed,
    Shading Surface 84,      !- Name
    ,                        !- Transmittance Schedule Name
    ,                        !- Number of Vertices
    -1.17227388121907,116.835103048727,12,  !- X,Y,Z ==> Vertex 1 {m}
    -1.17227388121907,116.835103048727,0,  !- X,Y,Z ==> Vertex 2 {m}
    1.50720340146482,145.155402201004,0,  !- X,Y,Z ==> Vertex 3 {m}
    1.50720340146482,145.155402201004,12;  !- X,Y,Z ==> Vertex 4 {m}

  Shading:Building:Detailed,
    Shading Surface 85,      !- Name
    ,                        !- Transmittance Schedule Name
    ,                        !- Number of Vertices
    -11.3039995983392,161.814410888375,12,  !- X,Y,Z ==> Vertex 1 {m}
    -11.3039995983392,161.814410888375,0,  !- X,Y,Z ==> Vertex 2 {m}
    -16.7467999283673,103.730043096797,0,  !- X,Y,Z ==> Vertex 3 {m}
    -16.7467999283673,103.730043096797,12;  !- X,Y,Z ==> Vertex 4 {m}

  Shading:Building:Detailed,
    Shading Surface 86,      !- Name
    ,                        !- Transmittance Schedule Name
    ,                        !- Number of Vertices
    12.6438387758102,100.953535014442,12,  !- X,Y,Z ==> Vertex 1 {m}
    12.6438387758102,100.953535014442,0,  !- X,Y,Z ==> Vertex 2 {m}
    13.9835554999769,115.391336488604,0,  !- X,Y,Z ==> Vertex 3 {m}
    13.9835554999769,115.391336488604,12;  !- X,Y,Z ==> Vertex 4 {m}

  Shading:Building:Detailed,
    Shading Surface 87,      !- Name
    ,                        !- Transmittance Schedule Name
    ,                        !- Number of Vertices
    -16.7467999283673,103.730043096797,12,  !- X,Y,Z ==> Vertex 1 {m}
    -16.7467999283673,103.730043096797,0,  !- X,Y,Z ==> Vertex 2 {m}
    12.6438387758102,100.953535014442,0,  !- X,Y,Z ==> Vertex 3 {m}
    12.6438387758102,100.953535014442,12;  !- X,Y,Z ==> Vertex 4 {m}

  Shading:Building:Detailed,
    Shading Surface 88,      !- Name
    ,                        !- Transmittance Schedule Name
    ,                        !- Number of Vertices
    2.42826565257998,164.590902553483,12,  !- X,Y,Z ==> Vertex 1 {m}
    2.42826565257998,164.590902553483,0,  !- X,Y,Z ==> Vertex 2 {m}
    2.00960026648837,160.592742355564,0,  !- X,Y,Z ==> Vertex 3 {m}
    2.00960026648837,160.592742355564,12;  !- X,Y,Z ==> Vertex 4 {m}

  Shading:Building:Detailed,
    Shading Surface 89,      !- Name
    ,                        !- Transmittance Schedule Name
    ,                        !- Number of Vertices
    13.9835554999769,115.391336488604,12,  !- X,Y,Z ==> Vertex 1 {m}
    13.9835554999769,115.391336488604,0,  !- X,Y,Z ==> Vertex 2 {m}
    -1.17227388121907,116.835103048727,0,  !- X,Y,Z ==> Vertex 3 {m}
    -1.17227388121907,116.835103048727,12;  !- X,Y,Z ==> Vertex 4 {m}

  Shading:Building:Detailed,
    Shading Surface 90,      !- Name
    ,                        !- Transmittance Schedule Name
    ,                        !- Number of Vertices
    2.00960026648837,160.592742355564,12,  !- X,Y,Z ==> Vertex 1 {m}
    2.00960026648837,160.592742355564,0,  !- X,Y,Z ==> Vertex 2 {m}
    -11.3039995983392,161.814410888375,0,  !- X,Y,Z ==> Vertex 3 {m}
    -11.3039995983392,161.814410888375,12;  !- X,Y,Z ==> Vertex 4 {m}

  Shading:Building:Detailed,
    Shading Surface 91,      !- Name
    ,                        !- Transmittance Schedule Name
    ,                        !- Number of Vertices
    15.2394628644123,163.369258102004,12,  !- X,Y,Z ==> Vertex 1 {m}
    15.2394628644123,163.369258102004,0,  !- X,Y,Z ==> Vertex 2 {m}
    2.42826565257998,164.590902553483,0,  !- X,Y,Z ==> Vertex 3 {m}
    2.42826565257998,164.590902553483,12;  !- X,Y,Z ==> Vertex 4 {m}

  Shading:Building:Detailed,
    Shading Surface 92,      !- Name
    ,                        !- Transmittance Schedule Name
    ,                        !- Number of Vertices
    171.995557066708,-146.486053060316,12,  !- X,Y,Z ==> Vertex 1 {m}
    171.995557066708,-146.486053060316,0,  !- X,Y,Z ==> Vertex 2 {m}
    173.00004804412,-131.71505595122,0,  !- X,Y,Z ==> Vertex 3 {m}
    173.00004804412,-131.71505595122,12;  !- X,Y,Z ==> Vertex 4 {m}

  Shading:Building:Detailed,
    Shading Surface 93,      !- Name
    ,                        !- Transmittance Schedule Name
    ,                        !- Number of Vertices
    173.00004804412,-131.71505595122,12,  !- X,Y,Z ==> Vertex 1 {m}
    173.00004804412,-131.71505595122,0,  !- X,Y,Z ==> Vertex 2 {m}
    136.155848775038,-129.272520714442,0,  !- X,Y,Z ==> Vertex 3 {m}
    136.155848775038,-129.272520714442,12;  !- X,Y,Z ==> Vertex 4 {m}

  Shading:Building:Detailed,
    Shading Surface 94,      !- Name
    ,                        !- Transmittance Schedule Name
    ,                        !- Number of Vertices
    136.155848775038,-129.272520714442,12,  !- X,Y,Z ==> Vertex 1 {m}
    135.235022173451,-144.154571179026,12,  !- X,Y,Z ==> Vertex 2 {m}
    171.995557066708,-146.486053060316,12,  !- X,Y,Z ==> Vertex 3 {m}
    173.00004804412,-131.71505595122,12;  !- X,Y,Z ==> Vertex 4 {m}

  Shading:Building:Detailed,
    Shading Surface 95,      !- Name
    ,                        !- Transmittance Schedule Name
    ,                        !- Number of Vertices
    173.00004804412,-131.71505595122,0,  !- X,Y,Z ==> Vertex 1 {m}
    171.995557066708,-146.486053060316,0,  !- X,Y,Z ==> Vertex 2 {m}
    135.235022173451,-144.154571179026,0,  !- X,Y,Z ==> Vertex 3 {m}
    136.155848775038,-129.272520714442,0;  !- X,Y,Z ==> Vertex 4 {m}

  Shading:Building:Detailed,
    Shading Surface 96,      !- Name