    ConvergenceLimits,
      0,                       !- Minimum System Timestep {minutes}
      25;                      !- Maximum HVAC Iterations
    
Version,
  22.2;                                   !- Version Identifier

Timestep,
  1;                                      !- Number of Timesteps per Hour

LifeCycleCost:Parameters,
  Life Cycle Cost Parameters,             !- Name
  EndOfYear,                              !- Discounting Convention
  ConstantDollar,                         !- Inflation Approach
  0.03,                                   !- Real Discount Rate
  ,                                       !- Nominal Discount Rate
  ,                                       !- Inflation
  ,                                       !- Base Date Month
  2011,                                   !- Base Date Year
  ,                                       !- Service Date Month
  2011,                                   !- Service Date Year
  25,                                     !- Length of Study Period in Years
  ,                                       !- Tax rate
  None;                                   !- Depreciation Method

LifeCycleCost:UsePriceEscalation,
  U.S. Avg  Commercial-Electricity,       !- Name
  Electricity,                            !- Resource
  2011,                                   !- Escalation Start Year
  January,                                !- Escalation Start Month
  0.9838,                                 !- Year Escalation 1
  0.9730,                                 !- Year Escalation 2
  0.9632,                                 !- Year Escalation 3
  0.9611,                                 !- Year Escalation 4
  0.9571,                                 !- Year Escalation 5
  0.9553,                                 !- Year Escalation 6
  0.9539,                                 !- Year Escalation 7
  0.9521,                                 !- Year Escalation 8
  0.9546,                                 !- Year Escalation 9
  0.9550,                                 !- Year Escalation 10
  0.9553,                                 !- Year Escalation 11
  0.9564,                                 !- Year Escalation 12
  0.9575,                                 !- Year Escalation 13
  0.9596,                                 !- Year Escalation 14
  0.9618,                                 !- Year Escalation 15
  0.9614,                                 !- Year Escalation 16
  0.9618,                                 !- Year Escalation 17
  0.9618,                                 !- Year Escalation 18
  0.9593,                                 !- Year Escalation 19
  0.9589,                                 !- Year Escalation 20
  0.9607,                                 !- Year Escalation 21
  0.9625,                                 !- Year Escalation 22
  0.9650,                                 !- Year Escalation 23
  0.9708,                                 !- Year Escalation 24
  0.9751,                                 !- Year Escalation 25
  0.9762,                                 !- Year Escalation 26
  0.9766,                                 !- Year Escalation 27
  0.9766,                                 !- Year Escalation 28
  0.9769,                                 !- Year Escalation 29
  0.9773;                                 !- Year Escalation 30

LifeCycleCost:UsePriceEscalation,
  U.S. Avg  Commercial-Distillate Oil,    !- Name
  FuelOilNo1,                             !- Resource
  2011,                                   !- Escalation Start Year
  January,                                !- Escalation Start Month
  0.9714,                                 !- Year Escalation 1
  0.9730,                                 !- Year Escalation 2
  0.9942,                                 !- Year Escalation 3
  1.0164,                                 !- Year Escalation 4
  1.0541,                                 !- Year Escalation 5
  1.0928,                                 !- Year Escalation 6
  1.1267,                                 !- Year Escalation 7
  1.1580,                                 !- Year Escalation 8
  1.1792,                                 !- Year Escalation 9
  1.1967,                                 !- Year Escalation 10
  1.2200,                                 !- Year Escalation 11
  1.2333,                                 !- Year Escalation 12
  1.2566,                                 !- Year Escalation 13
  1.2709,                                 !- Year Escalation 14
  1.2826,                                 !- Year Escalation 15
  1.2985,                                 !- Year Escalation 16
  1.3102,                                 !- Year Escalation 17
  1.3250,                                 !- Year Escalation 18
  1.3261,                                 !- Year Escalation 19
  1.3282,                                 !- Year Escalation 20
  1.3324,                                 !- Year Escalation 21
  1.3356,                                 !- Year Escalation 22
  1.3431,                                 !- Year Escalation 23
  1.3510,                                 !- Year Escalation 24
  1.3568,                                 !- Year Escalation 25
  1.3606,                                 !- Year Escalation 26
  1.3637,                                 !- Year Escalation 27
  1.3674,                                 !- Year Escalation 28
  1.3706,                                 !- Year Escalation 29
  1.3743;                                 !- Year Escalation 30

LifeCycleCost:UsePriceEscalation,
  U.S. Avg  Commercial-Residual Oil,      !- Name
  FuelOilNo2,                             !- Resource
  2011,                                   !- Escalation Start Year
  January,                                !- Escalation Start Month
  0.8469,                                 !- Year Escalation 1
  0.8257,                                 !- Year Escalation 2
  0.8681,                                 !- Year Escalation 3
  0.8988,                                 !- Year Escalation 4
  0.9289,                                 !- Year Escalation 5
  0.9604,                                 !- Year Escalation 6
  0.9897,                                 !- Year Escalation 7
  1.0075,                                 !- Year Escalation 8
  1.0314,                                 !- Year Escalation 9
  1.0554,                                 !- Year Escalation 10
  1.0861,                                 !- Year Escalation 11
  1.1278,                                 !- Year Escalation 12
  1.1497,                                 !- Year Escalation 13
  1.1620,                                 !- Year Escalation 14
  1.1743,                                 !- Year Escalation 15
  1.1852,                                 !- Year Escalation 16
  1.1948,                                 !- Year Escalation 17
  1.2037,                                 !- Year Escalation 18
  1.2071,                                 !- Year Escalation 19
  1.2119,                                 !- Year Escalation 20
  1.2139,                                 !- Year Escalation 21
  1.2194,                                 !- Year Escalation 22
  1.2276,                                 !- Year Escalation 23
  1.2365,                                 !- Year Escalation 24
  1.2420,                                 !- Year Escalation 25
  1.2461,                                 !- Year Escalation 26
  1.2509,                                 !- Year Escalation 27
  1.2550,                                 !- Year Escalation 28
  1.2591,                                 !- Year Escalation 29
  1.2638;                                 !- Year Escalation 30

LifeCycleCost:UsePriceEscalation,
  U.S. Avg  Commercial-Natural gas,       !- Name
  NaturalGas,                             !- Resource
  2011,                                   !- Escalation Start Year
  January,                                !- Escalation Start Month
  0.9823,                                 !- Year Escalation 1
  0.9557,                                 !- Year Escalation 2
  0.9279,                                 !- Year Escalation 3
  0.9257,                                 !- Year Escalation 4
  0.9346,                                 !- Year Escalation 5
  0.9412,                                 !- Year Escalation 6
  0.9512,                                 !- Year Escalation 7
  0.9645,                                 !- Year Escalation 8
  0.9856,                                 !- Year Escalation 9
  1.0067,                                 !- Year Escalation 10
  1.0222,                                 !- Year Escalation 11
  1.0410,                                 !- Year Escalation 12
  1.0610,                                 !- Year Escalation 13
  1.0787,                                 !- Year Escalation 14
  1.0942,                                 !- Year Escalation 15
  1.1098,                                 !- Year Escalation 16
  1.1220,                                 !- Year Escalation 17
  1.1308,                                 !- Year Escalation 18
  1.1386,                                 !- Year Escalation 19
  1.1486,                                 !- Year Escalation 20
  1.1619,                                 !- Year Escalation 21
  1.1763,                                 !- Year Escalation 22
  1.1918,                                 !- Year Escalation 23
  1.2118,                                 !- Year Escalation 24
  1.2284,                                 !- Year Escalation 25
  1.2439,                                 !- Year Escalation 26
  1.2605,                                 !- Year Escalation 27
  1.2772,                                 !- Year Escalation 28
  1.2938,                                 !- Year Escalation 29
  1.3115;                                 !- Year Escalation 30

LifeCycleCost:UsePriceEscalation,
  U.S. Avg  Commercial-Coal,              !- Name
  Coal,                                   !- Resource
  2011,                                   !- Escalation Start Year
  January,                                !- Escalation Start Month
  0.9970,                                 !- Year Escalation 1
  1.0089,                                 !- Year Escalation 2
  1.0089,                                 !- Year Escalation 3
  0.9941,                                 !- Year Escalation 4
  0.9941,                                 !- Year Escalation 5
  1.0000,                                 !- Year Escalation 6
  1.0030,                                 !- Year Escalation 7
  1.0059,                                 !- Year Escalation 8
  1.0089,                                 !- Year Escalation 9
  1.0119,                                 !- Year Escalation 10
  1.0148,                                 !- Year Escalation 11
  1.0178,                                 !- Year Escalation 12
  1.0208,                                 !- Year Escalation 13
  1.0267,                                 !- Year Escalation 14
  1.0297,                                 !- Year Escalation 15
  1.0356,                                 !- Year Escalation 16
  1.0415,                                 !- Year Escalation 17
  1.0534,                                 !- Year Escalation 18
  1.0564,                                 !- Year Escalation 19
  1.0593,                                 !- Year Escalation 20
  1.0653,                                 !- Year Escalation 21
  1.0712,                                 !- Year Escalation 22
  1.0742,                                 !- Year Escalation 23
  1.0801,                                 !- Year Escalation 24
  1.0831,                                 !- Year Escalation 25
  1.0831,                                 !- Year Escalation 26
  1.0861,                                 !- Year Escalation 27
  1.0890,                                 !- Year Escalation 28
  1.0920,                                 !- Year Escalation 29
  1.0950;                                 !- Year Escalation 30

Building,
  bld_19,                                 !- Name
  ,                                       !- North Axis {deg}
  City,                                   !- Terrain
  ,                                       !- Loads Convergence Tolerance Value {W}
  ,                                       !- Temperature Convergence Tolerance Value {deltaC}
  ,                                       !- Solar Distribution
  ,                                       !- Maximum Number of Warmup Days
  ;                                       !- Minimum Number of Warmup Days

Shading:Building:Detailed,
  Shading Surface 1,                      !- Name
  ,                                       !- Transmittance Schedule Name
  ,                                       !- Number of Vertices
  -235.959204979201, 176.367100521925, 12, !- X,Y,Z Vertex 1 {m}
  -236.545945978389, 157.597978363909, 12, !- X,Y,Z Vertex 2 {m}
  -227.92144589504, 157.375582737633, 12, !- X,Y,Z Vertex 3 {m}
  -227.334727152643, 176.144705585644, 12; !- X,Y,Z Vertex 4 {m}

Shading:Building:Detailed,
  Shading Surface 2,                      !- Name
  ,                                       !- Transmittance Schedule Name
  ,                                       !- Number of Vertices
  -227.334727152643, 176.144705585644, 0, !- X,Y,Z Vertex 1 {m}
  -227.92144589504, 157.375582737633, 0,  !- X,Y,Z Vertex 2 {m}
  -236.545945978389, 157.597978363909, 0, !- X,Y,Z Vertex 3 {m}
  -235.959204979201, 176.367100521925, 0; !- X,Y,Z Vertex 4 {m}

Shading:Building:Detailed,
  Shading Surface 3,                      !- Name
  ,                                       !- Transmittance Schedule Name
  ,                                       !- Number of Vertices
  -236.545945978389, 157.597978363909, 12, !- X,Y,Z Vertex 1 {m}
  -236.545945978389, 157.597978363909, 0, !- X,Y,Z Vertex 2 {m}
  -227.92144589504, 157.375582737633, 0,  !- X,Y,Z Vertex 3 {m}
  -227.92144589504, 157.375582737633, 12; !- X,Y,Z Vertex 4 {m}

Shading:Building:Detailed,
  Shading Surface 4,                      !- Name
  ,                                       !- Transmittance Schedule Name
  ,                                       !- Number of Vertices
  -227.92144589504, 157.375582737633, 12, !- X,Y,Z Vertex 1 {m}
  -227.92144589504, 157.375582737633, 0,  !- X,Y,Z Vertex 2 {m}
  -227.334727152643, 176.144705585644, 0, !- X,Y,Z Vertex 3 {m}
  -227.334727152643, 176.144705585644, 12; !- X,Y,Z Vertex 4 {m}

Shading:Building:Detailed,
  Shading Surface 5,                      !- Name
  ,                                       !- Transmittance Schedule Name
  ,                                       !- Number of Vertices
  -227.334727152643, 176.144705585644, 12, !- X,Y,Z Vertex 1 {m}
  -227.334727152643, 176.144705585644, 0, !- X,Y,Z Vertex 2 {m}
  -235.959204979201, 176.367100521925, 0, !- X,Y,Z Vertex 3 {m}
  -235.959204979201, 176.367100521925, 12; !- X,Y,Z Vertex 4 {m}

Shading:Building:Detailed,
  Shading Surface 6,                      !- Name
  ,                                       !- Transmittance Schedule Name
  ,                                       !- Number of Vertices
  -235.959204979201, 176.367100521925, 12, !- X,Y,Z Vertex 1 {m}
  -235.959204979201, 176.367100521925, 0, !- X,Y,Z Vertex 2 {m}
  -236.545945978389, 157.597978363909, 0, !- X,Y,Z Vertex 3 {m}
  -236.545945978389, 157.597978363909, 12; !- X,Y,Z Vertex 4 {m}

Shading:Building:Detailed,
  Shading Surface 33,                     !- Name
  ,                                       !- Transmittance Schedule Name
  ,                                       !- Number of Vertices
  -45.6345081206109, 160.703951949355, 0, !- X,Y,Z Vertex 1 {m}
  -46.220689571497, 152.818695266625, 0,  !- X,Y,Z Vertex 2 {m}
  -42.0340348348383, 152.485489829587, 0, !- X,Y,Z Vertex 3 {m}
  -42.7876925770448, 142.379033877461, 0, !- X,Y,Z Vertex 4 {m}
  -52.8356773529421, 143.156520008442, 0, !- X,Y,Z Vertex 5 {m}
  -52.3332314960628, 149.59799658414, 0,  !- X,Y,Z Vertex 6 {m}
  -69.4985186791004, 150.93086052364, 0,  !- X,Y,Z Vertex 7 {m}
  -68.5773449731628, 162.481092341442, 0; !- X,Y,Z Vertex 8 {m}

Shading:Building:Detailed,
  Shading Surface 34,                     !- Name
  ,                                       !- Transmittance Schedule Name
  ,                                       !- Number of Vertices
  -46.220689571497, 152.818695266625, 12, !- X,Y,Z Vertex 1 {m}
  -46.220689571497, 152.818695266625, 0,  !- X,Y,Z Vertex 2 {m}
  -45.6345081206109, 160.703951949355, 0, !- X,Y,Z Vertex 3 {m}
  -45.6345081206109, 160.703951949355, 12; !- X,Y,Z Vertex 4 {m}

Shading:Building:Detailed,
  Shading Surface 35,                     !- Name
  ,                                       !- Transmittance Schedule Name
  ,                                       !- Number of Vertices
  -42.0340348348383, 152.485489829587, 12, !- X,Y,Z Vertex 1 {m}
  -42.0340348348383, 152.485489829587, 0, !- X,Y,Z Vertex 2 {m}
  -46.220689571497, 152.818695266625, 0,  !- X,Y,Z Vertex 3 {m}
  -46.220689571497, 152.818695266625, 12; !- X,Y,Z Vertex 4 {m}

Shading:Building:Detailed,
  Shading Surface 36,                     !- Name
  ,                                       !- Transmittance Schedule Name
  ,                                       !- Number of Vertices
  -69.4985186791004, 150.93086052364, 12, !- X,Y,Z Vertex 1 {m}
  -69.4985186791004, 150.93086052364, 0,  !- X,Y,Z Vertex 2 {m}
  -52.3332314960628, 149.59799658414, 0,  !- X,Y,Z Vertex 3 {m}
  -52.3332314960628, 149.59799658414, 12; !- X,Y,Z Vertex 4 {m}

Shading:Building:Detailed,
  Shading Surface 37,                     !- Name
  ,                                       !- Transmittance Schedule Name
  ,                                       !- Number of Vertices
  -68.5773449731628, 162.481092341442, 12, !- X,Y,Z Vertex 1 {m}
  -69.4985186791004, 150.93086052364, 12, !- X,Y,Z Vertex 2 {m}
  -52.3332314960628, 149.59799658414, 12, !- X,Y,Z Vertex 3 {m}
  -52.8356773529421, 143.156520008442, 12, !- X,Y,Z Vertex 4 {m}
  -42.7876925770448, 142.379033877461, 12, !- X,Y,Z Vertex 5 {m}
  -42.0340348348383, 152.485489829587, 12, !- X,Y,Z Vertex 6 {m}
  -46.220689571497, 152.818695266625, 12, !- X,Y,Z Vertex 7 {m}
  -45.6345081206109, 160.703951949355, 12; !- X,Y,Z Vertex 8 {m}

Shading:Building:Detailed,
  Shading Surface 38,                     !- Name
  ,                                       !- Transmittance Schedule Name
  ,                                       !- Number of Vertices
  -52.3332314960628, 149.59799658414, 12, !- X,Y,Z Vertex 1 {m}
  -52.3332314960628, 149.59799658414, 0,  !- X,Y,Z Vertex 2 {m}
  -52.8356773529421, 143.156520008442, 0, !- X,Y,Z Vertex 3 {m}
  -52.8356773529421, 143.156520008442, 12; !- X,Y,Z Vertex 4 {m}

Shading:Building:Detailed,
  Shading Surface 39,                     !- Name
  ,                                       !- Transmittance Schedule Name
  ,                                       !- Number of Vertices
  -52.8356773529421, 143.156520008442, 12, !- X,Y,Z Vertex 1 {m}
  -52.8356773529421, 143.156520008442, 0, !- X,Y,Z Vertex 2 {m}
  -42.7876925770448, 142.379033877461, 0, !- X,Y,Z Vertex 3 {m}
  -42.7876925770448, 142.379033877461, 12; !- X,Y,Z Vertex 4 {m}

Shading:Building:Detailed,
  Shading Surface 40,                     !- Name
  ,                                       !- Transmittance Schedule Name
  ,                                       !- Number of Vertices
  -45.6345081206109, 160.703951949355, 12, !- X,Y,Z Vertex 1 {m}
  -45.6345081206109, 160.703951949355, 0, !- X,Y,Z Vertex 2 {m}
  -68.5773449731628, 162.481092341442, 0, !- X,Y,Z Vertex 3 {m}
  -68.5773449731628, 162.481092341442, 12; !- X,Y,Z Vertex 4 {m}

Shading:Building:Detailed,
  Shading Surface 41,                     !- Name
  ,                                       !- Transmittance Schedule Name
  ,                                       !- Number of Vertices
  -42.7876925770448, 142.379033877461, 12, !- X,Y,Z Vertex 1 {m}
  -42.7876925770448, 142.379033877461, 0, !- X,Y,Z Vertex 2 {m}
  -42.0340348348383, 152.485489829587, 0, !- X,Y,Z Vertex 3 {m}
  -42.0340348348383, 152.485489829587, 12; !- X,Y,Z Vertex 4 {m}

Shading:Building:Detailed,
  Shading Surface 42,                     !- Name
  ,                                       !- Transmittance Schedule Name
  ,                                       !- Number of Vertices
  -68.5773449731628, 162.481092341442, 12, !- X,Y,Z Vertex 1 {m}
  -68.5773449731628, 162.481092341442, 0, !- X,Y,Z Vertex 2 {m}
  -69.4985186791004, 150.93086052364, 0,  !- X,Y,Z Vertex 3 {m}
  -69.4985186791004, 150.93086052364, 12; !- X,Y,Z Vertex 4 {m}

Shading:Building:Detailed,
  Shading Surface 43,                     !- Name
  ,                                       !- Transmittance Schedule Name
  ,                                       !- Number of Vertices
  -157.92842445857, -203.126951673426, 12, !- X,Y,Z Vertex 1 {m}
  -157.92842445857, -203.126951673426, 0, !- X,Y,Z Vertex 2 {m}
  -168.897981538751, -202.238225471148, 0, !- X,Y,Z Vertex 3 {m}
  -168.897981538751, -202.238225471148, 12; !- X,Y,Z Vertex 4 {m}

Shading:Building:Detailed,
  Shading Surface 44,                     !- Name
  ,                                       !- Transmittance Schedule Name
  ,                                       !- Number of Vertices
  -161.948997140362, -256.324573531055, 12, !- X,Y,Z Vertex 1 {m}
  -161.948997140362, -256.324573531055, 0, !- X,Y,Z Vertex 2 {m}
  -157.92842445857, -203.126951673426, 0, !- X,Y,Z Vertex 3 {m}
  -157.92842445857, -203.126951673426, 12; !- X,Y,Z Vertex 4 {m}

Shading:Building:Detailed,
  Shading Surface 45,                     !- Name
  ,                                       !- Transmittance Schedule Name
  ,                                       !- Number of Vertices
  -238.903264859102, -231.556085586058, 12, !- X,Y,Z Vertex 1 {m}
  -238.903264859102, -231.556085586058, 0, !- X,Y,Z Vertex 2 {m}
  -240.159889790554, -248.548214424008, 0, !- X,Y,Z Vertex 3 {m}
  -240.159889790554, -248.548214424008, 12; !- X,Y,Z Vertex 4 {m}

Shading:Building:Detailed,
  Shading Surface 46,                     !- Name
  ,                                       !- Transmittance Schedule Name
  ,                                       !- Number of Vertices
  -174.007225908341, -255.435815350053, 12, !- X,Y,Z Vertex 1 {m}
  -174.007225908341, -255.435815350053, 0, !- X,Y,Z Vertex 2 {m}
  -161.948997140362, -256.324573531055, 0, !- X,Y,Z Vertex 3 {m}
  -161.948997140362, -256.324573531055, 12; !- X,Y,Z Vertex 4 {m}

Shading:Building:Detailed,
  Shading Surface 47,                     !- Name
  ,                                       !- Transmittance Schedule Name
  ,                                       !- Number of Vertices
  -168.897981538751, -202.238225471148, 12, !- X,Y,Z Vertex 1 {m}
  -168.897981538751, -202.238225471148, 0, !- X,Y,Z Vertex 2 {m}
  -169.14927592745, -205.792137788838, 0, !- X,Y,Z Vertex 3 {m}
  -169.14927592745, -205.792137788838, 12; !- X,Y,Z Vertex 4 {m}

Shading:Building:Detailed,
  Shading Surface 48,                     !- Name
  ,                                       !- Transmittance Schedule Name
  ,                                       !- Number of Vertices
  -193.852151321323, -220.118253233841, 12, !- X,Y,Z Vertex 1 {m}
  -193.852151321323, -220.118253233841, 0, !- X,Y,Z Vertex 2 {m}
  -193.600853234827, -216.897521670725, 0, !- X,Y,Z Vertex 3 {m}
  -193.600853234827, -216.897521670725, 12; !- X,Y,Z Vertex 4 {m}

Shading:Building:Detailed,
  Shading Surface 49,                     !- Name
  ,                                       !- Transmittance Schedule Name
  ,                                       !- Number of Vertices
  -213.279469818081, -228.114024671352, 12, !- X,Y,Z Vertex 1 {m}
  -213.279469818081, -228.114024671352, 0, !- X,Y,Z Vertex 2 {m}
  -205.659370989083, -228.669543997795, 0, !- X,Y,Z Vertex 3 {m}
  -205.659370989083, -228.669543997795, 12; !- X,Y,Z Vertex 4 {m}

Shading:Building:Detailed,
  Shading Surface 50,                     !- Name
  ,                                       !- Transmittance Schedule Name
  ,                                       !- Number of Vertices
  -240.159889790554, -248.548214424008, 12, !- X,Y,Z Vertex 1 {m}
  -240.159889790554, -248.548214424008, 0, !- X,Y,Z Vertex 2 {m}
  -214.954880508247, -250.437022532321, 0, !- X,Y,Z Vertex 3 {m}
  -214.954880508247, -250.437022532321, 12; !- X,Y,Z Vertex 4 {m}

Shading:Building:Detailed,
  Shading Surface 51,                     !- Name
  ,                                       !- Transmittance Schedule Name
  ,                                       !- Number of Vertices
  -234.213481781663, -216.67420640348, 12, !- X,Y,Z Vertex 1 {m}
  -234.213481781663, -216.67420640348, 0, !- X,Y,Z Vertex 2 {m}
  -231.785104537764, -216.896404140156, 0, !- X,Y,Z Vertex 3 {m}
  -231.785104537764, -216.896404140156, 12; !- X,Y,Z Vertex 4 {m}

Shading:Building:Detailed,
  Shading Surface 52,                     !- Name
  ,                                       !- Transmittance Schedule Name
  ,                                       !- Number of Vertices
  -232.873121266896, -199.126778652682, 12, !- X,Y,Z Vertex 1 {m}
  -234.213481781663, -216.67420640348, 12, !- X,Y,Z Vertex 2 {m}
  -231.785104537764, -216.896404140156, 12, !- X,Y,Z Vertex 3 {m}
  -232.874174621831, -232.000521032124, 12, !- X,Y,Z Vertex 4 {m}
  -238.903264859102, -231.556085586058, 12, !- X,Y,Z Vertex 5 {m}
  -240.159889790554, -248.548214424008, 12, !- X,Y,Z Vertex 6 {m}
  -214.954880508247, -250.437022532321, 12, !- X,Y,Z Vertex 7 {m}
  -213.279469818081, -228.114024671352, 12, !- X,Y,Z Vertex 8 {m}
  -205.659370989083, -228.669543997795, 12, !- X,Y,Z Vertex 9 {m}
  -204.989207627792, -219.340528048262, 12, !- X,Y,Z Vertex 10 {m}
  -193.852151321323, -220.118253233841, 12, !- X,Y,Z Vertex 11 {m}
  -193.600853234827, -216.897521670725, 12, !- X,Y,Z Vertex 12 {m}
  -171.24300849428, -218.563981987602, 12, !- X,Y,Z Vertex 13 {m}
  -174.007225908341, -255.435815350053, 12, !- X,Y,Z Vertex 14 {m}
  -161.948997140362, -256.324573531055, 12, !- X,Y,Z Vertex 15 {m}
  -157.92842445857, -203.126951673426, 12, !- X,Y,Z Vertex 16 {m}
  -168.897981538751, -202.238225471148, 12, !- X,Y,Z Vertex 17 {m}
  -169.14927592745, -205.792137788838, 12, !- X,Y,Z Vertex 18 {m}
  -192.846877793094, -204.125648449608, 12, !- X,Y,Z Vertex 19 {m}
  -192.595571875227, -200.571736942905, 12, !- X,Y,Z Vertex 20 {m}
  -201.974117241689, -199.794062743669, 12, !- X,Y,Z Vertex 21 {m}
  -202.057897667109, -201.348899618928, 12; !- X,Y,Z Vertex 22 {m}

Shading:Building:Detailed,
  Shading Surface 53,                     !- Name
  ,                                       !- Transmittance Schedule Name
  ,                                       !- Number of Vertices
  -171.24300849428, -218.563981987602, 12, !- X,Y,Z Vertex 1 {m}
  -171.24300849428, -218.563981987602, 0, !- X,Y,Z Vertex 2 {m}
  -174.007225908341, -255.435815350053, 0, !- X,Y,Z Vertex 3 {m}
  -174.007225908341, -255.435815350053, 12; !- X,Y,Z Vertex 4 {m}

Shading:Building:Detailed,
  Shading Surface 54,                     !- Name
  ,                                       !- Transmittance Schedule Name
  ,                                       !- Number of Vertices
  -193.600853234827, -216.897521670725, 12, !- X,Y,Z Vertex 1 {m}
  -193.600853234827, -216.897521670725, 0, !- X,Y,Z Vertex 2 {m}
  -171.24300849428, -218.563981987602, 0, !- X,Y,Z Vertex 3 {m}
  -171.24300849428, -218.563981987602, 12; !- X,Y,Z Vertex 4 {m}

Shading:Building:Detailed,
  Shading Surface 55,                     !- Name
  ,                                       !- Transmittance Schedule Name
  ,                                       !- Number of Vertices
  -192.846877793094, -204.125648449608, 12, !- X,Y,Z Vertex 1 {m}
  -192.846877793094, -204.125648449608, 0, !- X,Y,Z Vertex 2 {m}
  -192.595571875227, -200.571736942905, 0, !- X,Y,Z Vertex 3 {m}
  -192.595571875227, -200.571736942905, 12; !- X,Y,Z Vertex 4 {m}

Shading:Building:Detailed,
  Shading Surface 56,                     !- Name
  ,                                       !- Transmittance Schedule Name
  ,                                       !- Number of Vertices
  -205.659370989083, -228.669543997795, 12, !- X,Y,Z Vertex 1 {m}
  -205.659370989083, -228.669543997795, 0, !- X,Y,Z Vertex 2 {m}
  -204.989207627792, -219.340528048262, 0, !- X,Y,Z Vertex 3 {m}
  -204.989207627792, -219.340528048262, 12; !- X,Y,Z Vertex 4 {m}

Shading:Building:Detailed,
  Shading Surface 57,                     !- Name
  ,                                       !- Transmittance Schedule Name
  ,                                       !- Number of Vertices
  -231.785104537764, -216.896404140156, 12, !- X,Y,Z Vertex 1 {m}
  -231.785104537764, -216.896404140156, 0, !- X,Y,Z Vertex 2 {m}
  -232.874174621831, -232.000521032124, 0, !- X,Y,Z Vertex 3 {m}
  -232.874174621831, -232.000521032124, 12; !- X,Y,Z Vertex 4 {m}

Shading:Building:Detailed,
  Shading Surface 58,                     !- Name
  ,                                       !- Transmittance Schedule Name
  ,                                       !- Number of Vertices
  -202.057897667109, -201.348899618928, 0, !- X,Y,Z Vertex 1 {m}
  -201.974117241689, -199.794062743669, 0, !- X,Y,Z Vertex 2 {m}
  -192.595571875227, -200.571736942905, 0, !- X,Y,Z Vertex 3 {m}
  -192.846877793094, -204.125648449608, 0, !- X,Y,Z Vertex 4 {m}
  -169.14927592745, -205.792137788838, 0, !- X,Y,Z Vertex 5 {m}
  -168.897981538751, -202.238225471148, 0, !- X,Y,Z Vertex 6 {m}
  -157.92842445857, -203.126951673426, 0, !- X,Y,Z Vertex 7 {m}
  -161.948997140362, -256.324573531055, 0, !- X,Y,Z Vertex 8 {m}
  -174.007225908341, -255.435815350053, 0, !- X,Y,Z Vertex 9 {m}
  -171.24300849428, -218.563981987602, 0, !- X,Y,Z Vertex 10 {m}
  -193.600853234827, -216.897521670725, 0, !- X,Y,Z Vertex 11 {m}